<routes>
    <vType id="standard_car" length='5.0' maxSpeed='11.11' minGap='2.5' accel='2.0' decel='4.5' />
<route id='N_S' edges='road_1_2_3 road_1_1_3' />
<route id='N_E' edges='road_1_2_3 road_1_1_0' />
<route id='N_W' edges='road_1_2_3 road_1_1_2' />
<route id='S_N' edges='road_1_0_1 road_1_1_1' />
<route id='S_W' edges='road_1_0_1 road_1_1_2' />
<route id='S_E' edges='road_1_0_1 road_1_1_0' />
<route id='E_W' edges='road_2_1_2 road_1_1_2' />
<route id='E_S' edges='road_2_1_2 road_1_1_3' />
<route id='E_N' edges='road_2_1_2 road_1_1_1' />
<route id='W_E' edges='road_0_1_0 road_1_1_0' />
<route id='W_N' edges='road_0_1_0 road_1_1_1' />
<route id='W_S' edges='road_0_1_0 road_1_1_3' />
<vehicle id='E_W_0' type='standard_car' route='E_W' depart='1' departLane='random' departSpeed='10' />
<vehicle id='E_W_1' type='standard_car' route='E_W' depart='5' departLane='random' departSpeed='10' />
<vehicle id='E_W_2' type='standard_car' route='E_W' depart='7' departLane='random' departSpeed='10' />
<vehicle id='E_W_3' type='standard_car' route='E_W' depart='9' departLane='random' departSpeed='10' />
<vehicle id='W_E_4' type='standard_car' route='W_E' depart='13' departLane='random' departSpeed='10' />
<vehicle id='E_W_5' type='standard_car' route='E_W' depart='14' departLane='random' departSpeed='10' />
<vehicle id='E_W_6' type='standard_car' route='E_W' depart='17' departLane='random' departSpeed='10' />
<vehicle id='E_W_7' type='standard_car' route='E_W' depart='19' departLane='random' departSpeed='10' />
<vehicle id='E_W_8' type='standard_car' route='E_W' depart='20' departLane='random' departSpeed='10' />
<vehicle id='E_S_9' type='standard_car' route='E_S' depart='20' departLane='random' departSpeed='10' />
<vehicle id='E_W_10' type='standard_car' route='E_W' depart='22' departLane='random' departSpeed='10' />
<vehicle id='E_W_11' type='standard_car' route='E_W' depart='26' departLane='random' departSpeed='10' />
<vehicle id='E_W_12' type='standard_car' route='E_W' depart='28' departLane='random' departSpeed='10' />
<vehicle id='W_E_13' type='standard_car' route='W_E' depart='28' departLane='random' departSpeed='10' />
<vehicle id='E_W_14' type='standard_car' route='E_W' depart='30' departLane='random' departSpeed='10' />
<vehicle id='S_N_15' type='standard_car' route='S_N' depart='34' departLane='random' departSpeed='10' />
<vehicle id='S_N_16' type='standard_car' route='S_N' depart='37' departLane='random' departSpeed='10' />
<vehicle id='N_S_17' type='standard_car' route='N_S' depart='41' departLane='random' departSpeed='10' />
<vehicle id='W_E_18' type='standard_car' route='W_E' depart='42' departLane='random' departSpeed='10' />
<vehicle id='N_S_19' type='standard_car' route='N_S' depart='44' departLane='random' departSpeed='10' />
<vehicle id='N_S_20' type='standard_car' route='N_S' depart='51' departLane='random' departSpeed='10' />
<vehicle id='N_E_21' type='standard_car' route='N_E' depart='51' departLane='random' departSpeed='10' />
<vehicle id='N_S_22' type='standard_car' route='N_S' depart='59' departLane='random' departSpeed='10' />
<vehicle id='N_E_23' type='standard_car' route='N_E' depart='59' departLane='random' departSpeed='10' />
<vehicle id='S_N_24' type='standard_car' route='S_N' depart='59' departLane='random' departSpeed='10' />
<vehicle id='W_E_25' type='standard_car' route='W_E' depart='68' departLane='random' departSpeed='10' />
<vehicle id='S_N_26' type='standard_car' route='S_N' depart='77' departLane='random' departSpeed='10' />
<vehicle id='N_S_27' type='standard_car' route='N_S' depart='81' departLane='random' departSpeed='10' />
<vehicle id='S_N_28' type='standard_car' route='S_N' depart='82' departLane='random' departSpeed='10' />
<vehicle id='S_N_29' type='standard_car' route='S_N' depart='84' departLane='random' departSpeed='10' />
<vehicle id='W_E_30' type='standard_car' route='W_E' depart='84' departLane='random' departSpeed='10' />
<vehicle id='N_S_31' type='standard_car' route='N_S' depart='86' departLane='random' departSpeed='10' />
<vehicle id='N_S_32' type='standard_car' route='N_S' depart='89' departLane='random' departSpeed='10' />
<vehicle id='N_E_33' type='standard_car' route='N_E' depart='89' departLane='random' departSpeed='10' />
<vehicle id='N_S_34' type='standard_car' route='N_S' depart='91' departLane='random' departSpeed='10' />
<vehicle id='S_N_35' type='standard_car' route='S_N' depart='91' departLane='random' departSpeed='10' />
<vehicle id='S_N_36' type='standard_car' route='S_N' depart='94' departLane='random' departSpeed='10' />
<vehicle id='N_S_37' type='standard_car' route='N_S' depart='95' departLane='random' departSpeed='10' />
<vehicle id='E_W_38' type='standard_car' route='E_W' depart='96' departLane='random' departSpeed='10' />
<vehicle id='N_S_39' type='standard_car' route='N_S' depart='96' departLane='random' departSpeed='10' />
<vehicle id='N_E_40' type='standard_car' route='N_E' depart='96' departLane='random' departSpeed='10' />
<vehicle id='N_S_41' type='standard_car' route='N_S' depart='98' departLane='random' departSpeed='10' />
<vehicle id='S_N_42' type='standard_car' route='S_N' depart='99' departLane='random' departSpeed='10' />
<vehicle id='S_W_43' type='standard_car' route='S_W' depart='99' departLane='random' departSpeed='10' />
<vehicle id='N_S_44' type='standard_car' route='N_S' depart='101' departLane='random' departSpeed='10' />
<vehicle id='N_S_45' type='standard_car' route='N_S' depart='103' departLane='random' departSpeed='10' />
<vehicle id='N_S_46' type='standard_car' route='N_S' depart='107' departLane='random' departSpeed='10' />
<vehicle id='N_S_47' type='standard_car' route='N_S' depart='111' departLane='random' departSpeed='10' />
<vehicle id='W_E_48' type='standard_car' route='W_E' depart='113' departLane='random' departSpeed='10' />
<vehicle id='N_S_49' type='standard_car' route='N_S' depart='117' departLane='random' departSpeed='10' />
<vehicle id='S_N_50' type='standard_car' route='S_N' depart='120' departLane='random' departSpeed='10' />
<vehicle id='E_W_51' type='standard_car' route='E_W' depart='126' departLane='random' departSpeed='10' />
<vehicle id='E_W_52' type='standard_car' route='E_W' depart='127' departLane='random' departSpeed='10' />
<vehicle id='W_E_53' type='standard_car' route='W_E' depart='127' departLane='random' departSpeed='10' />
<vehicle id='S_N_54' type='standard_car' route='S_N' depart='127' departLane='random' departSpeed='10' />
<vehicle id='S_N_55' type='standard_car' route='S_N' depart='128' departLane='random' departSpeed='10' />
<vehicle id='S_N_56' type='standard_car' route='S_N' depart='130' departLane='random' departSpeed='10' />
<vehicle id='W_E_57' type='standard_car' route='W_E' depart='132' departLane='random' departSpeed='10' />
<vehicle id='S_N_58' type='standard_car' route='S_N' depart='133' departLane='random' departSpeed='10' />
<vehicle id='S_N_59' type='standard_car' route='S_N' depart='133' departLane='random' departSpeed='10' />
<vehicle id='N_S_60' type='standard_car' route='N_S' depart='137' departLane='random' departSpeed='10' />
<vehicle id='S_N_61' type='standard_car' route='S_N' depart='138' departLane='random' departSpeed='10' />
<vehicle id='E_W_62' type='standard_car' route='E_W' depart='138' departLane='random' departSpeed='10' />
<vehicle id='W_E_63' type='standard_car' route='W_E' depart='139' departLane='random' departSpeed='10' />
<vehicle id='W_E_64' type='standard_car' route='W_E' depart='140' departLane='random' departSpeed='10' />
<vehicle id='N_S_65' type='standard_car' route='N_S' depart='141' departLane='random' departSpeed='10' />
<vehicle id='E_W_66' type='standard_car' route='E_W' depart='141' departLane='random' departSpeed='10' />
<vehicle id='E_S_67' type='standard_car' route='E_S' depart='141' departLane='random' departSpeed='10' />
<vehicle id='E_W_68' type='standard_car' route='E_W' depart='143' departLane='random' departSpeed='10' />
<vehicle id='W_E_69' type='standard_car' route='W_E' depart='149' departLane='random' departSpeed='10' />
<vehicle id='W_N_70' type='standard_car' route='W_N' depart='149' departLane='random' departSpeed='10' />
<vehicle id='N_S_71' type='standard_car' route='N_S' depart='152' departLane='random' departSpeed='10' />
<vehicle id='W_E_72' type='standard_car' route='W_E' depart='152' departLane='random' departSpeed='10' />
<vehicle id='N_S_73' type='standard_car' route='N_S' depart='155' departLane='random' departSpeed='10' />
<vehicle id='N_S_74' type='standard_car' route='N_S' depart='164' departLane='random' departSpeed='10' />
<vehicle id='E_W_75' type='standard_car' route='E_W' depart='165' departLane='random' departSpeed='10' />
<vehicle id='E_W_76' type='standard_car' route='E_W' depart='169' departLane='random' departSpeed='10' />
<vehicle id='E_S_77' type='standard_car' route='E_S' depart='169' departLane='random' departSpeed='10' />
<vehicle id='E_W_78' type='standard_car' route='E_W' depart='172' departLane='random' departSpeed='10' />
<vehicle id='W_E_79' type='standard_car' route='W_E' depart='173' departLane='random' departSpeed='10' />
<vehicle id='E_W_80' type='standard_car' route='E_W' depart='173' departLane='random' departSpeed='10' />
<vehicle id='N_S_81' type='standard_car' route='N_S' depart='176' departLane='random' departSpeed='10' />
<vehicle id='W_E_82' type='standard_car' route='W_E' depart='177' departLane='random' departSpeed='10' />
<vehicle id='W_N_83' type='standard_car' route='W_N' depart='177' departLane='random' departSpeed='10' />
<vehicle id='E_W_84' type='standard_car' route='E_W' depart='177' departLane='random' departSpeed='10' />
<vehicle id='E_W_85' type='standard_car' route='E_W' depart='182' departLane='random' departSpeed='10' />
<vehicle id='W_E_86' type='standard_car' route='W_E' depart='182' departLane='random' departSpeed='10' />
<vehicle id='N_S_87' type='standard_car' route='N_S' depart='183' departLane='random' departSpeed='10' />
<vehicle id='N_S_88' type='standard_car' route='N_S' depart='184' departLane='random' departSpeed='10' />
<vehicle id='E_W_89' type='standard_car' route='E_W' depart='185' departLane='random' departSpeed='10' />
<vehicle id='E_W_90' type='standard_car' route='E_W' depart='185' departLane='random' departSpeed='10' />
<vehicle id='E_W_91' type='standard_car' route='E_W' depart='193' departLane='random' departSpeed='10' />
<vehicle id='W_E_92' type='standard_car' route='W_E' depart='194' departLane='random' departSpeed='10' />
<vehicle id='E_W_93' type='standard_car' route='E_W' depart='195' departLane='random' departSpeed='10' />
<vehicle id='E_S_94' type='standard_car' route='E_S' depart='195' departLane='random' departSpeed='10' />
<vehicle id='N_S_95' type='standard_car' route='N_S' depart='201' departLane='random' departSpeed='10' />
<vehicle id='N_S_96' type='standard_car' route='N_S' depart='212' departLane='random' departSpeed='10' />
<vehicle id='W_E_97' type='standard_car' route='W_E' depart='217' departLane='random' departSpeed='10' />
<vehicle id='S_N_98' type='standard_car' route='S_N' depart='221' departLane='random' departSpeed='10' />
<vehicle id='S_N_99' type='standard_car' route='S_N' depart='223' departLane='random' departSpeed='10' />
<vehicle id='N_S_100' type='standard_car' route='N_S' depart='225' departLane='random' departSpeed='10' />
<vehicle id='N_S_101' type='standard_car' route='N_S' depart='228' departLane='random' departSpeed='10' />
<vehicle id='N_E_102' type='standard_car' route='N_E' depart='228' departLane='random' departSpeed='10' />
<vehicle id='N_S_103' type='standard_car' route='N_S' depart='233' departLane='random' departSpeed='10' />
<vehicle id='N_E_104' type='standard_car' route='N_E' depart='233' departLane='random' departSpeed='10' />
<vehicle id='N_S_105' type='standard_car' route='N_S' depart='242' departLane='random' departSpeed='10' />
<vehicle id='N_S_106' type='standard_car' route='N_S' depart='245' departLane='random' departSpeed='10' />
<vehicle id='N_S_107' type='standard_car' route='N_S' depart='254' departLane='random' departSpeed='10' />
<vehicle id='N_S_108' type='standard_car' route='N_S' depart='254' departLane='random' departSpeed='10' />
<vehicle id='N_S_109' type='standard_car' route='N_S' depart='256' departLane='random' departSpeed='10' />
<vehicle id='N_S_110' type='standard_car' route='N_S' depart='261' departLane='random' departSpeed='10' />
<vehicle id='N_S_111' type='standard_car' route='N_S' depart='263' departLane='random' departSpeed='10' />
<vehicle id='N_E_112' type='standard_car' route='N_E' depart='263' departLane='random' departSpeed='10' />
<vehicle id='N_S_113' type='standard_car' route='N_S' depart='264' departLane='random' departSpeed='10' />
<vehicle id='S_N_114' type='standard_car' route='S_N' depart='269' departLane='random' departSpeed='10' />
<vehicle id='N_S_115' type='standard_car' route='N_S' depart='269' departLane='random' departSpeed='10' />
<vehicle id='N_S_116' type='standard_car' route='N_S' depart='272' departLane='random' departSpeed='10' />
<vehicle id='N_S_117' type='standard_car' route='N_S' depart='275' departLane='random' departSpeed='10' />
<vehicle id='N_E_118' type='standard_car' route='N_E' depart='275' departLane='random' departSpeed='10' />
<vehicle id='S_N_119' type='standard_car' route='S_N' depart='285' departLane='random' departSpeed='10' />
<vehicle id='W_E_120' type='standard_car' route='W_E' depart='299' departLane='random' departSpeed='10' />
<vehicle id='N_S_121' type='standard_car' route='N_S' depart='304' departLane='random' departSpeed='10' />
<vehicle id='W_E_122' type='standard_car' route='W_E' depart='305' departLane='random' departSpeed='10' />
<vehicle id='N_S_123' type='standard_car' route='N_S' depart='306' departLane='random' departSpeed='10' />
<vehicle id='E_W_124' type='standard_car' route='E_W' depart='308' departLane='random' departSpeed='10' />
<vehicle id='W_E_125' type='standard_car' route='W_E' depart='310' departLane='random' departSpeed='10' />
<vehicle id='E_W_126' type='standard_car' route='E_W' depart='311' departLane='random' departSpeed='10' />
<vehicle id='N_S_127' type='standard_car' route='N_S' depart='315' departLane='random' departSpeed='10' />
<vehicle id='W_E_128' type='standard_car' route='W_E' depart='316' departLane='random' departSpeed='10' />
<vehicle id='W_N_129' type='standard_car' route='W_N' depart='316' departLane='random' departSpeed='10' />
<vehicle id='S_N_130' type='standard_car' route='S_N' depart='316' departLane='random' departSpeed='10' />
<vehicle id='E_W_131' type='standard_car' route='E_W' depart='319' departLane='random' departSpeed='10' />
<vehicle id='W_E_132' type='standard_car' route='W_E' depart='320' departLane='random' departSpeed='10' />
<vehicle id='N_S_133' type='standard_car' route='N_S' depart='321' departLane='random' departSpeed='10' />
<vehicle id='N_E_134' type='standard_car' route='N_E' depart='321' departLane='random' departSpeed='10' />
<vehicle id='W_E_135' type='standard_car' route='W_E' depart='321' departLane='random' departSpeed='10' />
<vehicle id='W_E_136' type='standard_car' route='W_E' depart='323' departLane='random' departSpeed='10' />
<vehicle id='S_N_137' type='standard_car' route='S_N' depart='323' departLane='random' departSpeed='10' />
<vehicle id='S_W_138' type='standard_car' route='S_W' depart='323' departLane='random' departSpeed='10' />
<vehicle id='W_E_139' type='standard_car' route='W_E' depart='329' departLane='random' departSpeed='10' />
<vehicle id='W_N_140' type='standard_car' route='W_N' depart='329' departLane='random' departSpeed='10' />
<vehicle id='N_S_141' type='standard_car' route='N_S' depart='330' departLane='random' departSpeed='10' />
<vehicle id='E_W_142' type='standard_car' route='E_W' depart='332' departLane='random' departSpeed='10' />
<vehicle id='E_W_143' type='standard_car' route='E_W' depart='335' departLane='random' departSpeed='10' />
<vehicle id='W_E_144' type='standard_car' route='W_E' depart='336' departLane='random' departSpeed='10' />
<vehicle id='E_W_145' type='standard_car' route='E_W' depart='341' departLane='random' departSpeed='10' />
<vehicle id='E_W_146' type='standard_car' route='E_W' depart='345' departLane='random' departSpeed='10' />
<vehicle id='W_E_147' type='standard_car' route='W_E' depart='348' departLane='random' departSpeed='10' />
<vehicle id='W_E_148' type='standard_car' route='W_E' depart='348' departLane='random' departSpeed='10' />
<vehicle id='E_W_149' type='standard_car' route='E_W' depart='349' departLane='random' departSpeed='10' />
<vehicle id='E_W_150' type='standard_car' route='E_W' depart='349' departLane='random' departSpeed='10' />
<vehicle id='W_E_151' type='standard_car' route='W_E' depart='351' departLane='random' departSpeed='10' />
<vehicle id='W_E_152' type='standard_car' route='W_E' depart='357' departLane='random' departSpeed='10' />
<vehicle id='W_E_153' type='standard_car' route='W_E' depart='358' departLane='random' departSpeed='10' />
<vehicle id='E_W_154' type='standard_car' route='E_W' depart='358' departLane='random' departSpeed='10' />
<vehicle id='W_E_155' type='standard_car' route='W_E' depart='364' departLane='random' departSpeed='10' />
<vehicle id='E_W_156' type='standard_car' route='E_W' depart='365' departLane='random' departSpeed='10' />
<vehicle id='E_W_157' type='standard_car' route='E_W' depart='367' departLane='random' departSpeed='10' />
<vehicle id='W_E_158' type='standard_car' route='W_E' depart='368' departLane='random' departSpeed='10' />
<vehicle id='W_E_159' type='standard_car' route='W_E' depart='369' departLane='random' departSpeed='10' />
<vehicle id='N_S_160' type='standard_car' route='N_S' depart='371' departLane='random' departSpeed='10' />
<vehicle id='N_S_161' type='standard_car' route='N_S' depart='373' departLane='random' departSpeed='10' />
<vehicle id='W_E_162' type='standard_car' route='W_E' depart='374' departLane='random' departSpeed='10' />
<vehicle id='W_E_163' type='standard_car' route='W_E' depart='375' departLane='random' departSpeed='10' />
<vehicle id='E_W_164' type='standard_car' route='E_W' depart='377' departLane='random' departSpeed='10' />
<vehicle id='E_S_165' type='standard_car' route='E_S' depart='377' departLane='random' departSpeed='10' />
<vehicle id='E_W_166' type='standard_car' route='E_W' depart='380' departLane='random' departSpeed='10' />
<vehicle id='W_E_167' type='standard_car' route='W_E' depart='380' departLane='random' departSpeed='10' />
<vehicle id='E_W_168' type='standard_car' route='E_W' depart='382' departLane='random' departSpeed='10' />
<vehicle id='W_E_169' type='standard_car' route='W_E' depart='382' departLane='random' departSpeed='10' />
<vehicle id='N_S_170' type='standard_car' route='N_S' depart='384' departLane='random' departSpeed='10' />
<vehicle id='E_W_171' type='standard_car' route='E_W' depart='385' departLane='random' departSpeed='10' />
<vehicle id='N_S_172' type='standard_car' route='N_S' depart='386' departLane='random' departSpeed='10' />
<vehicle id='W_E_173' type='standard_car' route='W_E' depart='387' departLane='random' departSpeed='10' />
<vehicle id='E_W_174' type='standard_car' route='E_W' depart='389' departLane='random' departSpeed='10' />
<vehicle id='E_S_175' type='standard_car' route='E_S' depart='389' departLane='random' departSpeed='10' />
<vehicle id='E_W_176' type='standard_car' route='E_W' depart='390' departLane='random' departSpeed='10' />
<vehicle id='E_W_177' type='standard_car' route='E_W' depart='391' departLane='random' departSpeed='10' />
<vehicle id='E_W_178' type='standard_car' route='E_W' depart='392' departLane='random' departSpeed='10' />
<vehicle id='N_S_179' type='standard_car' route='N_S' depart='395' departLane='random' departSpeed='10' />
<vehicle id='W_E_180' type='standard_car' route='W_E' depart='399' departLane='random' departSpeed='10' />
<vehicle id='N_S_181' type='standard_car' route='N_S' depart='400' departLane='random' departSpeed='10' />
<vehicle id='N_E_182' type='standard_car' route='N_E' depart='400' departLane='random' departSpeed='10' />
<vehicle id='N_S_183' type='standard_car' route='N_S' depart='406' departLane='random' departSpeed='10' />
<vehicle id='N_S_184' type='standard_car' route='N_S' depart='417' departLane='random' departSpeed='10' />
<vehicle id='W_E_185' type='standard_car' route='W_E' depart='432' departLane='random' departSpeed='10' />
<vehicle id='N_S_186' type='standard_car' route='N_S' depart='436' departLane='random' departSpeed='10' />
<vehicle id='S_N_187' type='standard_car' route='S_N' depart='437' departLane='random' departSpeed='10' />
<vehicle id='N_S_188' type='standard_car' route='N_S' depart='439' departLane='random' departSpeed='10' />
<vehicle id='N_S_189' type='standard_car' route='N_S' depart='441' departLane='random' departSpeed='10' />
<vehicle id='S_N_190' type='standard_car' route='S_N' depart='442' departLane='random' departSpeed='10' />
<vehicle id='S_N_191' type='standard_car' route='S_N' depart='444' departLane='random' departSpeed='10' />
<vehicle id='N_S_192' type='standard_car' route='N_S' depart='446' departLane='random' departSpeed='10' />
<vehicle id='N_S_193' type='standard_car' route='N_S' depart='454' departLane='random' departSpeed='10' />
<vehicle id='S_N_194' type='standard_car' route='S_N' depart='456' departLane='random' departSpeed='10' />
<vehicle id='N_S_195' type='standard_car' route='N_S' depart='463' departLane='random' departSpeed='10' />
<vehicle id='E_W_196' type='standard_car' route='E_W' depart='466' departLane='random' departSpeed='10' />
<vehicle id='E_S_197' type='standard_car' route='E_S' depart='466' departLane='random' departSpeed='10' />
<vehicle id='N_S_198' type='standard_car' route='N_S' depart='471' departLane='random' departSpeed='10' />
<vehicle id='S_N_199' type='standard_car' route='S_N' depart='478' departLane='random' departSpeed='10' />
<vehicle id='E_W_200' type='standard_car' route='E_W' depart='482' departLane='random' departSpeed='10' />
<vehicle id='W_E_201' type='standard_car' route='W_E' depart='484' departLane='random' departSpeed='10' />
<vehicle id='W_N_202' type='standard_car' route='W_N' depart='484' departLane='random' departSpeed='10' />
<vehicle id='N_S_203' type='standard_car' route='N_S' depart='491' departLane='random' departSpeed='10' />
<vehicle id='E_W_204' type='standard_car' route='E_W' depart='491' departLane='random' departSpeed='10' />
<vehicle id='E_W_205' type='standard_car' route='E_W' depart='505' departLane='random' departSpeed='10' />
<vehicle id='N_S_206' type='standard_car' route='N_S' depart='506' departLane='random' departSpeed='10' />
<vehicle id='W_E_207' type='standard_car' route='W_E' depart='508' departLane='random' departSpeed='10' />
<vehicle id='E_W_208' type='standard_car' route='E_W' depart='509' departLane='random' departSpeed='10' />
<vehicle id='W_E_209' type='standard_car' route='W_E' depart='513' departLane='random' departSpeed='10' />
<vehicle id='W_N_210' type='standard_car' route='W_N' depart='513' departLane='random' departSpeed='10' />
<vehicle id='W_E_211' type='standard_car' route='W_E' depart='521' departLane='random' departSpeed='10' />
<vehicle id='W_E_212' type='standard_car' route='W_E' depart='528' departLane='random' departSpeed='10' />
<vehicle id='W_N_213' type='standard_car' route='W_N' depart='528' departLane='random' departSpeed='10' />
<vehicle id='W_E_214' type='standard_car' route='W_E' depart='529' departLane='random' departSpeed='10' />
<vehicle id='E_W_215' type='standard_car' route='E_W' depart='530' departLane='random' departSpeed='10' />
<vehicle id='W_E_216' type='standard_car' route='W_E' depart='531' departLane='random' departSpeed='10' />
<vehicle id='E_W_217' type='standard_car' route='E_W' depart='534' departLane='random' departSpeed='10' />
<vehicle id='E_W_218' type='standard_car' route='E_W' depart='536' departLane='random' departSpeed='10' />
<vehicle id='W_E_219' type='standard_car' route='W_E' depart='536' departLane='random' departSpeed='10' />
<vehicle id='W_E_220' type='standard_car' route='W_E' depart='538' departLane='random' departSpeed='10' />
<vehicle id='W_E_221' type='standard_car' route='W_E' depart='542' departLane='random' departSpeed='10' />
<vehicle id='E_W_222' type='standard_car' route='E_W' depart='542' departLane='random' departSpeed='10' />
<vehicle id='N_S_223' type='standard_car' route='N_S' depart='543' departLane='random' departSpeed='10' />
<vehicle id='W_E_224' type='standard_car' route='W_E' depart='543' departLane='random' departSpeed='10' />
<vehicle id='W_E_225' type='standard_car' route='W_E' depart='545' departLane='random' departSpeed='10' />
<vehicle id='E_W_226' type='standard_car' route='E_W' depart='546' departLane='random' departSpeed='10' />
<vehicle id='E_S_227' type='standard_car' route='E_S' depart='546' departLane='random' departSpeed='10' />
<vehicle id='E_W_228' type='standard_car' route='E_W' depart='548' departLane='random' departSpeed='10' />
<vehicle id='E_W_229' type='standard_car' route='E_W' depart='549' departLane='random' departSpeed='10' />
<vehicle id='W_E_230' type='standard_car' route='W_E' depart='554' departLane='random' departSpeed='10' />
<vehicle id='W_E_231' type='standard_car' route='W_E' depart='559' departLane='random' departSpeed='10' />
<vehicle id='W_E_232' type='standard_car' route='W_E' depart='562' departLane='random' departSpeed='10' />
<vehicle id='E_W_233' type='standard_car' route='E_W' depart='567' departLane='random' departSpeed='10' />
<vehicle id='E_S_234' type='standard_car' route='E_S' depart='567' departLane='random' departSpeed='10' />
<vehicle id='S_N_235' type='standard_car' route='S_N' depart='577' departLane='random' departSpeed='10' />
<vehicle id='N_S_236' type='standard_car' route='N_S' depart='582' departLane='random' departSpeed='10' />
<vehicle id='E_W_237' type='standard_car' route='E_W' depart='586' departLane='random' departSpeed='10' />
<vehicle id='E_S_238' type='standard_car' route='E_S' depart='586' departLane='random' departSpeed='10' />
<vehicle id='W_E_239' type='standard_car' route='W_E' depart='591' departLane='random' departSpeed='10' />
<vehicle id='W_N_240' type='standard_car' route='W_N' depart='591' departLane='random' departSpeed='10' />
<vehicle id='S_N_241' type='standard_car' route='S_N' depart='615' departLane='random' departSpeed='10' />
<vehicle id='S_N_242' type='standard_car' route='S_N' depart='617' departLane='random' departSpeed='10' />
<vehicle id='N_S_243' type='standard_car' route='N_S' depart='621' departLane='random' departSpeed='10' />
<vehicle id='N_E_244' type='standard_car' route='N_E' depart='621' departLane='random' departSpeed='10' />
<vehicle id='N_S_245' type='standard_car' route='N_S' depart='624' departLane='random' departSpeed='10' />
<vehicle id='N_S_246' type='standard_car' route='N_S' depart='628' departLane='random' departSpeed='10' />
<vehicle id='N_S_247' type='standard_car' route='N_S' depart='629' departLane='random' departSpeed='10' />
<vehicle id='N_E_248' type='standard_car' route='N_E' depart='629' departLane='random' departSpeed='10' />
<vehicle id='N_S_249' type='standard_car' route='N_S' depart='629' departLane='random' departSpeed='10' />
<vehicle id='S_N_250' type='standard_car' route='S_N' depart='630' departLane='random' departSpeed='10' />
<vehicle id='N_S_251' type='standard_car' route='N_S' depart='631' departLane='random' departSpeed='10' />
<vehicle id='N_S_252' type='standard_car' route='N_S' depart='632' departLane='random' departSpeed='10' />
<vehicle id='S_N_253' type='standard_car' route='S_N' depart='633' departLane='random' departSpeed='10' />
<vehicle id='N_S_254' type='standard_car' route='N_S' depart='634' departLane='random' departSpeed='10' />
<vehicle id='S_N_255' type='standard_car' route='S_N' depart='635' departLane='random' departSpeed='10' />
<vehicle id='N_S_256' type='standard_car' route='N_S' depart='636' departLane='random' departSpeed='10' />
<vehicle id='N_E_257' type='standard_car' route='N_E' depart='636' departLane='random' departSpeed='10' />
<vehicle id='N_S_258' type='standard_car' route='N_S' depart='637' departLane='random' departSpeed='10' />
<vehicle id='W_E_259' type='standard_car' route='W_E' depart='641' departLane='random' departSpeed='10' />
<vehicle id='W_N_260' type='standard_car' route='W_N' depart='641' departLane='random' departSpeed='10' />
<vehicle id='E_W_261' type='standard_car' route='E_W' depart='641' departLane='random' departSpeed='10' />
<vehicle id='N_S_262' type='standard_car' route='N_S' depart='642' departLane='random' departSpeed='10' />
<vehicle id='N_S_263' type='standard_car' route='N_S' depart='642' departLane='random' departSpeed='10' />
<vehicle id='N_S_264' type='standard_car' route='N_S' depart='648' departLane='random' departSpeed='10' />
<vehicle id='W_E_265' type='standard_car' route='W_E' depart='654' departLane='random' departSpeed='10' />
<vehicle id='E_W_266' type='standard_car' route='E_W' depart='667' departLane='random' departSpeed='10' />
<vehicle id='W_E_267' type='standard_car' route='W_E' depart='673' departLane='random' departSpeed='10' />
<vehicle id='E_W_268' type='standard_car' route='E_W' depart='678' departLane='random' departSpeed='10' />
<vehicle id='W_E_269' type='standard_car' route='W_E' depart='679' departLane='random' departSpeed='10' />
<vehicle id='E_W_270' type='standard_car' route='E_W' depart='684' departLane='random' departSpeed='10' />
<vehicle id='W_E_271' type='standard_car' route='W_E' depart='684' departLane='random' departSpeed='10' />
<vehicle id='N_S_272' type='standard_car' route='N_S' depart='685' departLane='random' departSpeed='10' />
<vehicle id='N_S_273' type='standard_car' route='N_S' depart='698' departLane='random' departSpeed='10' />
<vehicle id='N_S_274' type='standard_car' route='N_S' depart='700' departLane='random' departSpeed='10' />