<routes>
    <vType id="standard_car" length='5.0' maxSpeed='11.11' minGap='2.5' accel='2.0' decel='4.5' />
<route id='N_S' edges='road_1_2_3 road_1_1_3' />
<route id='N_E' edges='road_1_2_3 road_1_1_0' />
<route id='N_W' edges='road_1_2_3 road_1_1_2' />
<route id='S_N' edges='road_1_0_1 road_1_1_1' />
<route id='S_W' edges='road_1_0_1 road_1_1_2' />
<route id='S_E' edges='road_1_0_1 road_1_1_0' />
<route id='E_W' edges='road_2_1_2 road_1_1_2' />
<route id='E_S' edges='road_2_1_2 road_1_1_3' />
<route id='E_N' edges='road_2_1_2 road_1_1_1' />
<route id='W_E' edges='road_0_1_0 road_1_1_0' />
<route id='W_N' edges='road_0_1_0 road_1_1_1' />
<route id='W_S' edges='road_0_1_0 road_1_1_3' />
<vehicle id='E_W_0' type='standard_car' route='E_W' depart='7' departLane='random' departSpeed='10' />
<vehicle id='W_E_1' type='standard_car' route='W_E' depart='10' departLane='random' departSpeed='10' />
<vehicle id='E_W_2' type='standard_car' route='E_W' depart='14' departLane='random' departSpeed='10' />
<vehicle id='W_E_3' type='standard_car' route='W_E' depart='16' departLane='random' departSpeed='10' />
<vehicle id='W_E_4' type='standard_car' route='W_E' depart='18' departLane='random' departSpeed='10' />
<vehicle id='W_E_5' type='standard_car' route='W_E' depart='20' departLane='random' departSpeed='10' />
<vehicle id='E_W_6' type='standard_car' route='E_W' depart='21' departLane='random' departSpeed='10' />
<vehicle id='W_E_7' type='standard_car' route='W_E' depart='23' departLane='random' departSpeed='10' />
<vehicle id='E_W_8' type='standard_car' route='E_W' depart='23' departLane='random' departSpeed='10' />
<vehicle id='E_W_9' type='standard_car' route='E_W' depart='24' departLane='random' departSpeed='10' />
<vehicle id='S_N_10' type='standard_car' route='S_N' depart='27' departLane='random' departSpeed='10' />
<vehicle id='W_E_11' type='standard_car' route='W_E' depart='29' departLane='random' departSpeed='10' />
<vehicle id='W_N_12' type='standard_car' route='W_N' depart='29' departLane='random' departSpeed='10' />
<vehicle id='W_E_13' type='standard_car' route='W_E' depart='31' departLane='random' departSpeed='10' />
<vehicle id='E_W_14' type='standard_car' route='E_W' depart='32' departLane='random' departSpeed='10' />
<vehicle id='S_N_15' type='standard_car' route='S_N' depart='36' departLane='random' departSpeed='10' />
<vehicle id='S_N_16' type='standard_car' route='S_N' depart='37' departLane='random' departSpeed='10' />
<vehicle id='E_W_17' type='standard_car' route='E_W' depart='41' departLane='random' departSpeed='10' />
<vehicle id='S_N_18' type='standard_car' route='S_N' depart='42' departLane='random' departSpeed='10' />
<vehicle id='S_N_19' type='standard_car' route='S_N' depart='43' departLane='random' departSpeed='10' />
<vehicle id='S_N_20' type='standard_car' route='S_N' depart='49' departLane='random' departSpeed='10' />
<vehicle id='S_W_21' type='standard_car' route='S_W' depart='49' departLane='random' departSpeed='10' />
<vehicle id='S_N_22' type='standard_car' route='S_N' depart='49' departLane='random' departSpeed='10' />
<vehicle id='S_W_23' type='standard_car' route='S_W' depart='49' departLane='random' departSpeed='10' />
<vehicle id='S_N_24' type='standard_car' route='S_N' depart='50' departLane='random' departSpeed='10' />
<vehicle id='S_N_25' type='standard_car' route='S_N' depart='52' departLane='random' departSpeed='10' />
<vehicle id='S_W_26' type='standard_car' route='S_W' depart='52' departLane='random' departSpeed='10' />
<vehicle id='S_N_27' type='standard_car' route='S_N' depart='54' departLane='random' departSpeed='10' />
<vehicle id='S_N_28' type='standard_car' route='S_N' depart='55' departLane='random' departSpeed='10' />
<vehicle id='S_N_29' type='standard_car' route='S_N' depart='57' departLane='random' departSpeed='10' />
<vehicle id='E_W_30' type='standard_car' route='E_W' depart='61' departLane='random' departSpeed='10' />
<vehicle id='E_S_31' type='standard_car' route='E_S' depart='61' departLane='random' departSpeed='10' />
<vehicle id='S_N_32' type='standard_car' route='S_N' depart='64' departLane='random' departSpeed='10' />
<vehicle id='S_N_33' type='standard_car' route='S_N' depart='67' departLane='random' departSpeed='10' />
<vehicle id='E_W_34' type='standard_car' route='E_W' depart='68' departLane='random' departSpeed='10' />
<vehicle id='S_N_35' type='standard_car' route='S_N' depart='74' departLane='random' departSpeed='10' />
<vehicle id='N_S_36' type='standard_car' route='N_S' depart='74' departLane='random' departSpeed='10' />
<vehicle id='E_W_37' type='standard_car' route='E_W' depart='77' departLane='random' departSpeed='10' />
<vehicle id='S_N_38' type='standard_car' route='S_N' depart='78' departLane='random' departSpeed='10' />
<vehicle id='N_S_39' type='standard_car' route='N_S' depart='78' departLane='random' departSpeed='10' />
<vehicle id='N_S_40' type='standard_car' route='N_S' depart='81' departLane='random' departSpeed='10' />
<vehicle id='W_E_41' type='standard_car' route='W_E' depart='82' departLane='random' departSpeed='10' />
<vehicle id='N_S_42' type='standard_car' route='N_S' depart='84' departLane='random' departSpeed='10' />
<vehicle id='N_E_43' type='standard_car' route='N_E' depart='84' departLane='random' departSpeed='10' />
<vehicle id='S_N_44' type='standard_car' route='S_N' depart='84' departLane='random' departSpeed='10' />
<vehicle id='E_W_45' type='standard_car' route='E_W' depart='84' departLane='random' departSpeed='10' />
<vehicle id='S_N_46' type='standard_car' route='S_N' depart='84' departLane='random' departSpeed='10' />
<vehicle id='N_S_47' type='standard_car' route='N_S' depart='84' departLane='random' departSpeed='10' />
<vehicle id='S_N_48' type='standard_car' route='S_N' depart='86' departLane='random' departSpeed='10' />
<vehicle id='E_W_49' type='standard_car' route='E_W' depart='88' departLane='random' departSpeed='10' />
<vehicle id='N_S_50' type='standard_car' route='N_S' depart='89' departLane='random' departSpeed='10' />
<vehicle id='W_E_51' type='standard_car' route='W_E' depart='93' departLane='random' departSpeed='10' />
<vehicle id='E_W_52' type='standard_car' route='E_W' depart='93' departLane='random' departSpeed='10' />
<vehicle id='W_E_53' type='standard_car' route='W_E' depart='95' departLane='random' departSpeed='10' />
<vehicle id='W_E_54' type='standard_car' route='W_E' depart='97' departLane='random' departSpeed='10' />
<vehicle id='W_E_55' type='standard_car' route='W_E' depart='99' departLane='random' departSpeed='10' />
<vehicle id='S_N_56' type='standard_car' route='S_N' depart='99' departLane='random' departSpeed='10' />
<vehicle id='S_W_57' type='standard_car' route='S_W' depart='99' departLane='random' departSpeed='10' />
<vehicle id='E_W_58' type='standard_car' route='E_W' depart='100' departLane='random' departSpeed='10' />
<vehicle id='N_S_59' type='standard_car' route='N_S' depart='102' departLane='random' departSpeed='10' />
<vehicle id='N_E_60' type='standard_car' route='N_E' depart='102' departLane='random' departSpeed='10' />
<vehicle id='S_N_61' type='standard_car' route='S_N' depart='102' departLane='random' departSpeed='10' />
<vehicle id='W_E_62' type='standard_car' route='W_E' depart='103' departLane='random' departSpeed='10' />
<vehicle id='W_E_63' type='standard_car' route='W_E' depart='106' departLane='random' departSpeed='10' />
<vehicle id='W_E_64' type='standard_car' route='W_E' depart='107' departLane='random' departSpeed='10' />
<vehicle id='W_N_65' type='standard_car' route='W_N' depart='107' departLane='random' departSpeed='10' />
<vehicle id='S_N_66' type='standard_car' route='S_N' depart='107' departLane='random' departSpeed='10' />
<vehicle id='N_S_67' type='standard_car' route='N_S' depart='109' departLane='random' departSpeed='10' />
<vehicle id='S_N_68' type='standard_car' route='S_N' depart='111' departLane='random' departSpeed='10' />
<vehicle id='W_E_69' type='standard_car' route='W_E' depart='113' departLane='random' departSpeed='10' />
<vehicle id='N_S_70' type='standard_car' route='N_S' depart='114' departLane='random' departSpeed='10' />
<vehicle id='N_S_71' type='standard_car' route='N_S' depart='114' departLane='random' departSpeed='10' />
<vehicle id='S_N_72' type='standard_car' route='S_N' depart='116' departLane='random' departSpeed='10' />
<vehicle id='N_S_73' type='standard_car' route='N_S' depart='117' departLane='random' departSpeed='10' />
<vehicle id='N_S_74' type='standard_car' route='N_S' depart='118' departLane='random' departSpeed='10' />
<vehicle id='N_S_75' type='standard_car' route='N_S' depart='119' departLane='random' departSpeed='10' />
<vehicle id='N_S_76' type='standard_car' route='N_S' depart='122' departLane='random' departSpeed='10' />
<vehicle id='S_N_77' type='standard_car' route='S_N' depart='125' departLane='random' departSpeed='10' />
<vehicle id='N_S_78' type='standard_car' route='N_S' depart='126' departLane='random' departSpeed='10' />
<vehicle id='S_N_79' type='standard_car' route='S_N' depart='128' departLane='random' departSpeed='10' />
<vehicle id='N_S_80' type='standard_car' route='N_S' depart='128' departLane='random' departSpeed='10' />
<vehicle id='W_E_81' type='standard_car' route='W_E' depart='129' departLane='random' departSpeed='10' />
<vehicle id='S_N_82' type='standard_car' route='S_N' depart='130' departLane='random' departSpeed='10' />
<vehicle id='N_S_83' type='standard_car' route='N_S' depart='132' departLane='random' departSpeed='10' />
<vehicle id='N_S_84' type='standard_car' route='N_S' depart='132' departLane='random' departSpeed='10' />
<vehicle id='S_N_85' type='standard_car' route='S_N' depart='133' departLane='random' departSpeed='10' />
<vehicle id='W_E_86' type='standard_car' route='W_E' depart='133' departLane='random' departSpeed='10' />
<vehicle id='W_N_87' type='standard_car' route='W_N' depart='133' departLane='random' departSpeed='10' />
<vehicle id='S_N_88' type='standard_car' route='S_N' depart='134' departLane='random' departSpeed='10' />
<vehicle id='N_S_89' type='standard_car' route='N_S' depart='134' departLane='random' departSpeed='10' />
<vehicle id='S_N_90' type='standard_car' route='S_N' depart='135' departLane='random' departSpeed='10' />
<vehicle id='S_W_91' type='standard_car' route='S_W' depart='135' departLane='random' departSpeed='10' />
<vehicle id='S_N_92' type='standard_car' route='S_N' depart='136' departLane='random' departSpeed='10' />
<vehicle id='S_N_93' type='standard_car' route='S_N' depart='137' departLane='random' departSpeed='10' />
<vehicle id='S_N_94' type='standard_car' route='S_N' depart='138' departLane='random' departSpeed='10' />
<vehicle id='S_N_95' type='standard_car' route='S_N' depart='140' departLane='random' departSpeed='10' />
<vehicle id='N_S_96' type='standard_car' route='N_S' depart='140' departLane='random' departSpeed='10' />
<vehicle id='N_S_97' type='standard_car' route='N_S' depart='140' departLane='random' departSpeed='10' />
<vehicle id='N_E_98' type='standard_car' route='N_E' depart='140' departLane='random' departSpeed='10' />
<vehicle id='N_S_99' type='standard_car' route='N_S' depart='141' departLane='random' departSpeed='10' />
<vehicle id='N_S_100' type='standard_car' route='N_S' depart='142' departLane='random' departSpeed='10' />
<vehicle id='S_N_101' type='standard_car' route='S_N' depart='142' departLane='random' departSpeed='10' />
<vehicle id='S_N_102' type='standard_car' route='S_N' depart='143' departLane='random' departSpeed='10' />
<vehicle id='N_S_103' type='standard_car' route='N_S' depart='143' departLane='random' departSpeed='10' />
<vehicle id='N_S_104' type='standard_car' route='N_S' depart='146' departLane='random' departSpeed='10' />
<vehicle id='S_N_105' type='standard_car' route='S_N' depart='147' departLane='random' departSpeed='10' />
<vehicle id='N_S_106' type='standard_car' route='N_S' depart='148' departLane='random' departSpeed='10' />
<vehicle id='N_E_107' type='standard_car' route='N_E' depart='148' departLane='random' departSpeed='10' />
<vehicle id='N_S_108' type='standard_car' route='N_S' depart='149' departLane='random' departSpeed='10' />
<vehicle id='N_S_109' type='standard_car' route='N_S' depart='150' departLane='random' departSpeed='10' />
<vehicle id='N_E_110' type='standard_car' route='N_E' depart='150' departLane='random' departSpeed='10' />
<vehicle id='S_N_111' type='standard_car' route='S_N' depart='154' departLane='random' departSpeed='10' />
<vehicle id='N_S_112' type='standard_car' route='N_S' depart='156' departLane='random' departSpeed='10' />
<vehicle id='S_N_113' type='standard_car' route='S_N' depart='159' departLane='random' departSpeed='10' />
<vehicle id='N_S_114' type='standard_car' route='N_S' depart='160' departLane='random' departSpeed='10' />
<vehicle id='N_S_115' type='standard_car' route='N_S' depart='160' departLane='random' departSpeed='10' />
<vehicle id='S_N_116' type='standard_car' route='S_N' depart='170' departLane='random' departSpeed='10' />
<vehicle id='W_E_117' type='standard_car' route='W_E' depart='179' departLane='random' departSpeed='10' />
<vehicle id='E_W_118' type='standard_car' route='E_W' depart='181' departLane='random' departSpeed='10' />
<vehicle id='E_S_119' type='standard_car' route='E_S' depart='181' departLane='random' departSpeed='10' />
<vehicle id='E_W_120' type='standard_car' route='E_W' depart='184' departLane='random' departSpeed='10' />
<vehicle id='E_S_121' type='standard_car' route='E_S' depart='184' departLane='random' departSpeed='10' />
<vehicle id='E_W_122' type='standard_car' route='E_W' depart='185' departLane='random' departSpeed='10' />
<vehicle id='E_W_123' type='standard_car' route='E_W' depart='185' departLane='random' departSpeed='10' />
<vehicle id='W_E_124' type='standard_car' route='W_E' depart='186' departLane='random' departSpeed='10' />
<vehicle id='E_W_125' type='standard_car' route='E_W' depart='186' departLane='random' departSpeed='10' />
<vehicle id='W_E_126' type='standard_car' route='W_E' depart='192' departLane='random' departSpeed='10' />
<vehicle id='E_W_127' type='standard_car' route='E_W' depart='195' departLane='random' departSpeed='10' />
<vehicle id='E_S_128' type='standard_car' route='E_S' depart='195' departLane='random' departSpeed='10' />
<vehicle id='E_W_129' type='standard_car' route='E_W' depart='197' departLane='random' departSpeed='10' />
<vehicle id='W_E_130' type='standard_car' route='W_E' depart='197' departLane='random' departSpeed='10' />
<vehicle id='W_E_131' type='standard_car' route='W_E' depart='198' departLane='random' departSpeed='10' />
<vehicle id='E_W_132' type='standard_car' route='E_W' depart='200' departLane='random' departSpeed='10' />
<vehicle id='W_E_133' type='standard_car' route='W_E' depart='200' departLane='random' departSpeed='10' />
<vehicle id='S_N_134' type='standard_car' route='S_N' depart='201' departLane='random' departSpeed='10' />
<vehicle id='E_W_135' type='standard_car' route='E_W' depart='202' departLane='random' departSpeed='10' />
<vehicle id='E_W_136' type='standard_car' route='E_W' depart='204' departLane='random' departSpeed='10' />
<vehicle id='S_N_137' type='standard_car' route='S_N' depart='205' departLane='random' departSpeed='10' />
<vehicle id='S_W_138' type='standard_car' route='S_W' depart='205' departLane='random' departSpeed='10' />
<vehicle id='S_N_139' type='standard_car' route='S_N' depart='206' departLane='random' departSpeed='10' />
<vehicle id='S_W_140' type='standard_car' route='S_W' depart='206' departLane='random' departSpeed='10' />
<vehicle id='E_W_141' type='standard_car' route='E_W' depart='207' departLane='random' departSpeed='10' />
<vehicle id='W_E_142' type='standard_car' route='W_E' depart='207' departLane='random' departSpeed='10' />
<vehicle id='S_N_143' type='standard_car' route='S_N' depart='209' departLane='random' departSpeed='10' />
<vehicle id='S_N_144' type='standard_car' route='S_N' depart='212' departLane='random' departSpeed='10' />
<vehicle id='E_W_145' type='standard_car' route='E_W' depart='218' departLane='random' departSpeed='10' />
<vehicle id='S_N_146' type='standard_car' route='S_N' depart='219' departLane='random' departSpeed='10' />
<vehicle id='S_N_147' type='standard_car' route='S_N' depart='222' departLane='random' departSpeed='10' />
<vehicle id='S_N_148' type='standard_car' route='S_N' depart='224' departLane='random' departSpeed='10' />
<vehicle id='S_N_149' type='standard_car' route='S_N' depart='229' departLane='random' departSpeed='10' />
<vehicle id='E_W_150' type='standard_car' route='E_W' depart='229' departLane='random' departSpeed='10' />
<vehicle id='S_N_151' type='standard_car' route='S_N' depart='231' departLane='random' departSpeed='10' />
<vehicle id='N_S_152' type='standard_car' route='N_S' depart='241' departLane='random' departSpeed='10' />
<vehicle id='N_S_153' type='standard_car' route='N_S' depart='245' departLane='random' departSpeed='10' />
<vehicle id='E_W_154' type='standard_car' route='E_W' depart='248' departLane='random' departSpeed='10' />
<vehicle id='E_W_155' type='standard_car' route='E_W' depart='248' departLane='random' departSpeed='10' />
<vehicle id='N_S_156' type='standard_car' route='N_S' depart='249' departLane='random' departSpeed='10' />
<vehicle id='W_E_157' type='standard_car' route='W_E' depart='250' departLane='random' departSpeed='10' />
<vehicle id='W_N_158' type='standard_car' route='W_N' depart='250' departLane='random' departSpeed='10' />
<vehicle id='N_S_159' type='standard_car' route='N_S' depart='252' departLane='random' departSpeed='10' />
<vehicle id='N_E_160' type='standard_car' route='N_E' depart='252' departLane='random' departSpeed='10' />
<vehicle id='W_E_161' type='standard_car' route='W_E' depart='262' departLane='random' departSpeed='10' />
<vehicle id='W_E_162' type='standard_car' route='W_E' depart='264' departLane='random' departSpeed='10' />
<vehicle id='S_N_163' type='standard_car' route='S_N' depart='270' departLane='random' departSpeed='10' />
<vehicle id='S_N_164' type='standard_car' route='S_N' depart='272' departLane='random' departSpeed='10' />
<vehicle id='N_S_165' type='standard_car' route='N_S' depart='275' departLane='random' departSpeed='10' />
<vehicle id='S_N_166' type='standard_car' route='S_N' depart='277' departLane='random' departSpeed='10' />
<vehicle id='N_S_167' type='standard_car' route='N_S' depart='277' departLane='random' departSpeed='10' />
<vehicle id='N_S_168' type='standard_car' route='N_S' depart='281' departLane='random' departSpeed='10' />
<vehicle id='W_E_169' type='standard_car' route='W_E' depart='281' departLane='random' departSpeed='10' />
<vehicle id='W_N_170' type='standard_car' route='W_N' depart='281' departLane='random' departSpeed='10' />
<vehicle id='S_N_171' type='standard_car' route='S_N' depart='282' departLane='random' departSpeed='10' />
<vehicle id='N_S_172' type='standard_car' route='N_S' depart='282' departLane='random' departSpeed='10' />
<vehicle id='N_E_173' type='standard_car' route='N_E' depart='282' departLane='random' departSpeed='10' />
<vehicle id='S_N_174' type='standard_car' route='S_N' depart='284' departLane='random' departSpeed='10' />
<vehicle id='N_S_175' type='standard_car' route='N_S' depart='286' departLane='random' departSpeed='10' />
<vehicle id='E_W_176' type='standard_car' route='E_W' depart='286' departLane='random' departSpeed='10' />
<vehicle id='W_E_177' type='standard_car' route='W_E' depart='286' departLane='random' departSpeed='10' />
<vehicle id='W_E_178' type='standard_car' route='W_E' depart='287' departLane='random' departSpeed='10' />
<vehicle id='S_N_179' type='standard_car' route='S_N' depart='287' departLane='random' departSpeed='10' />
<vehicle id='W_E_180' type='standard_car' route='W_E' depart='290' departLane='random' departSpeed='10' />
<vehicle id='S_N_181' type='standard_car' route='S_N' depart='290' departLane='random' departSpeed='10' />
<vehicle id='N_S_182' type='standard_car' route='N_S' depart='290' departLane='random' departSpeed='10' />
<vehicle id='W_E_183' type='standard_car' route='W_E' depart='294' departLane='random' departSpeed='10' />
<vehicle id='N_S_184' type='standard_car' route='N_S' depart='295' departLane='random' departSpeed='10' />
<vehicle id='N_E_185' type='standard_car' route='N_E' depart='295' departLane='random' departSpeed='10' />
<vehicle id='N_S_186' type='standard_car' route='N_S' depart='296' departLane='random' departSpeed='10' />
<vehicle id='W_E_187' type='standard_car' route='W_E' depart='297' departLane='random' departSpeed='10' />
<vehicle id='S_N_188' type='standard_car' route='S_N' depart='297' departLane='random' departSpeed='10' />
<vehicle id='N_S_189' type='standard_car' route='N_S' depart='300' departLane='random' departSpeed='10' />
<vehicle id='N_E_190' type='standard_car' route='N_E' depart='300' departLane='random' departSpeed='10' />
<vehicle id='W_E_191' type='standard_car' route='W_E' depart='301' departLane='random' departSpeed='10' />
<vehicle id='N_S_192' type='standard_car' route='N_S' depart='301' departLane='random' departSpeed='10' />
<vehicle id='N_S_193' type='standard_car' route='N_S' depart='302' departLane='random' departSpeed='10' />
<vehicle id='W_E_194' type='standard_car' route='W_E' depart='303' departLane='random' departSpeed='10' />
<vehicle id='N_S_195' type='standard_car' route='N_S' depart='305' departLane='random' departSpeed='10' />
<vehicle id='N_S_196' type='standard_car' route='N_S' depart='306' departLane='random' departSpeed='10' />
<vehicle id='N_E_197' type='standard_car' route='N_E' depart='306' departLane='random' departSpeed='10' />
<vehicle id='S_N_198' type='standard_car' route='S_N' depart='306' departLane='random' departSpeed='10' />
<vehicle id='S_W_199' type='standard_car' route='S_W' depart='306' departLane='random' departSpeed='10' />
<vehicle id='N_S_200' type='standard_car' route='N_S' depart='307' departLane='random' departSpeed='10' />
<vehicle id='N_E_201' type='standard_car' route='N_E' depart='307' departLane='random' departSpeed='10' />
<vehicle id='S_N_202' type='standard_car' route='S_N' depart='309' departLane='random' departSpeed='10' />
<vehicle id='S_W_203' type='standard_car' route='S_W' depart='309' departLane='random' departSpeed='10' />
<vehicle id='W_E_204' type='standard_car' route='W_E' depart='310' departLane='random' departSpeed='10' />
<vehicle id='S_N_205' type='standard_car' route='S_N' depart='311' departLane='random' departSpeed='10' />
<vehicle id='S_N_206' type='standard_car' route='S_N' depart='313' departLane='random' departSpeed='10' />
<vehicle id='W_E_207' type='standard_car' route='W_E' depart='314' departLane='random' departSpeed='10' />
<vehicle id='S_N_208' type='standard_car' route='S_N' depart='315' departLane='random' departSpeed='10' />
<vehicle id='W_E_209' type='standard_car' route='W_E' depart='316' departLane='random' departSpeed='10' />
<vehicle id='N_S_210' type='standard_car' route='N_S' depart='317' departLane='random' departSpeed='10' />
<vehicle id='S_N_211' type='standard_car' route='S_N' depart='318' departLane='random' departSpeed='10' />
<vehicle id='S_N_212' type='standard_car' route='S_N' depart='319' departLane='random' departSpeed='10' />
<vehicle id='S_N_213' type='standard_car' route='S_N' depart='320' departLane='random' departSpeed='10' />
<vehicle id='S_W_214' type='standard_car' route='S_W' depart='320' departLane='random' departSpeed='10' />
<vehicle id='N_S_215' type='standard_car' route='N_S' depart='321' departLane='random' departSpeed='10' />
<vehicle id='N_S_216' type='standard_car' route='N_S' depart='322' departLane='random' departSpeed='10' />
<vehicle id='N_S_217' type='standard_car' route='N_S' depart='324' departLane='random' departSpeed='10' />
<vehicle id='N_S_218' type='standard_car' route='N_S' depart='324' departLane='random' departSpeed='10' />
<vehicle id='N_S_219' type='standard_car' route='N_S' depart='325' departLane='random' departSpeed='10' />
<vehicle id='E_W_220' type='standard_car' route='E_W' depart='326' departLane='random' departSpeed='10' />
<vehicle id='S_N_221' type='standard_car' route='S_N' depart='326' departLane='random' departSpeed='10' />
<vehicle id='S_N_222' type='standard_car' route='S_N' depart='326' departLane='random' departSpeed='10' />
<vehicle id='N_S_223' type='standard_car' route='N_S' depart='326' departLane='random' departSpeed='10' />
<vehicle id='S_N_224' type='standard_car' route='S_N' depart='328' departLane='random' departSpeed='10' />
<vehicle id='S_N_225' type='standard_car' route='S_N' depart='330' departLane='random' departSpeed='10' />
<vehicle id='S_W_226' type='standard_car' route='S_W' depart='330' departLane='random' departSpeed='10' />
<vehicle id='N_S_227' type='standard_car' route='N_S' depart='330' departLane='random' departSpeed='10' />
<vehicle id='S_N_228' type='standard_car' route='S_N' depart='332' departLane='random' departSpeed='10' />
<vehicle id='E_W_229' type='standard_car' route='E_W' depart='337' departLane='random' departSpeed='10' />
<vehicle id='E_W_230' type='standard_car' route='E_W' depart='347' departLane='random' departSpeed='10' />
<vehicle id='E_S_231' type='standard_car' route='E_S' depart='347' departLane='random' departSpeed='10' />
<vehicle id='W_E_232' type='standard_car' route='W_E' depart='351' departLane='random' departSpeed='10' />
<vehicle id='E_W_233' type='standard_car' route='E_W' depart='351' departLane='random' departSpeed='10' />
<vehicle id='E_W_234' type='standard_car' route='E_W' depart='353' departLane='random' departSpeed='10' />
<vehicle id='E_W_235' type='standard_car' route='E_W' depart='358' departLane='random' departSpeed='10' />
<vehicle id='E_W_236' type='standard_car' route='E_W' depart='364' departLane='random' departSpeed='10' />
<vehicle id='E_W_237' type='standard_car' route='E_W' depart='365' departLane='random' departSpeed='10' />
<vehicle id='W_E_238' type='standard_car' route='W_E' depart='367' departLane='random' departSpeed='10' />
<vehicle id='W_E_239' type='standard_car' route='W_E' depart='367' departLane='random' departSpeed='10' />
<vehicle id='E_W_240' type='standard_car' route='E_W' depart='370' departLane='random' departSpeed='10' />
<vehicle id='W_E_241' type='standard_car' route='W_E' depart='371' departLane='random' departSpeed='10' />
<vehicle id='W_E_242' type='standard_car' route='W_E' depart='371' departLane='random' departSpeed='10' />
<vehicle id='E_W_243' type='standard_car' route='E_W' depart='371' departLane='random' departSpeed='10' />
<vehicle id='W_E_244' type='standard_car' route='W_E' depart='372' departLane='random' departSpeed='10' />
<vehicle id='S_N_245' type='standard_car' route='S_N' depart='373' departLane='random' departSpeed='10' />
<vehicle id='S_N_246' type='standard_car' route='S_N' depart='374' departLane='random' departSpeed='10' />
<vehicle id='W_E_247' type='standard_car' route='W_E' depart='374' departLane='random' departSpeed='10' />
<vehicle id='W_E_248' type='standard_car' route='W_E' depart='375' departLane='random' departSpeed='10' />
<vehicle id='W_E_249' type='standard_car' route='W_E' depart='375' departLane='random' departSpeed='10' />
<vehicle id='S_N_250' type='standard_car' route='S_N' depart='376' departLane='random' departSpeed='10' />
<vehicle id='S_W_251' type='standard_car' route='S_W' depart='376' departLane='random' departSpeed='10' />
<vehicle id='S_N_252' type='standard_car' route='S_N' depart='377' departLane='random' departSpeed='10' />
<vehicle id='S_N_253' type='standard_car' route='S_N' depart='379' departLane='random' departSpeed='10' />
<vehicle id='S_N_254' type='standard_car' route='S_N' depart='379' departLane='random' departSpeed='10' />
<vehicle id='S_W_255' type='standard_car' route='S_W' depart='379' departLane='random' departSpeed='10' />
<vehicle id='W_E_256' type='standard_car' route='W_E' depart='380' departLane='random' departSpeed='10' />
<vehicle id='W_N_257' type='standard_car' route='W_N' depart='380' departLane='random' departSpeed='10' />
<vehicle id='S_N_258' type='standard_car' route='S_N' depart='381' departLane='random' departSpeed='10' />
<vehicle id='S_N_259' type='standard_car' route='S_N' depart='385' departLane='random' departSpeed='10' />
<vehicle id='S_N_260' type='standard_car' route='S_N' depart='387' departLane='random' departSpeed='10' />
<vehicle id='S_W_261' type='standard_car' route='S_W' depart='387' departLane='random' departSpeed='10' />
<vehicle id='S_N_262' type='standard_car' route='S_N' depart='388' departLane='random' departSpeed='10' />
<vehicle id='S_W_263' type='standard_car' route='S_W' depart='388' departLane='random' departSpeed='10' />
<vehicle id='S_N_264' type='standard_car' route='S_N' depart='397' departLane='random' departSpeed='10' />
<vehicle id='S_N_265' type='standard_car' route='S_N' depart='397' departLane='random' departSpeed='10' />
<vehicle id='S_N_266' type='standard_car' route='S_N' depart='398' departLane='random' departSpeed='10' />
<vehicle id='S_N_267' type='standard_car' route='S_N' depart='406' departLane='random' departSpeed='10' />
<vehicle id='E_W_268' type='standard_car' route='E_W' depart='410' departLane='random' departSpeed='10' />
<vehicle id='S_N_269' type='standard_car' route='S_N' depart='411' departLane='random' departSpeed='10' />
<vehicle id='S_N_270' type='standard_car' route='S_N' depart='412' departLane='random' departSpeed='10' />
<vehicle id='S_W_271' type='standard_car' route='S_W' depart='412' departLane='random' departSpeed='10' />
<vehicle id='S_N_272' type='standard_car' route='S_N' depart='413' departLane='random' departSpeed='10' />
<vehicle id='S_N_273' type='standard_car' route='S_N' depart='414' departLane='random' departSpeed='10' />
<vehicle id='S_N_274' type='standard_car' route='S_N' depart='416' departLane='random' departSpeed='10' />