<routes>
    <vType id="standard_car" length='5.0' maxSpeed='11.11' minGap='2.5' accel='2.0' decel='4.5' />
<route id='N_S' edges='road_1_2_3 road_1_1_3' />
<route id='N_E' edges='road_1_2_3 road_1_1_0' />
<route id='N_W' edges='road_1_2_3 road_1_1_2' />
<route id='S_N' edges='road_1_0_1 road_1_1_1' />
<route id='S_W' edges='road_1_0_1 road_1_1_2' />
<route id='S_E' edges='road_1_0_1 road_1_1_0' />
<route id='E_W' edges='road_2_1_2 road_1_1_2' />
<route id='E_S' edges='road_2_1_2 road_1_1_3' />
<route id='E_N' edges='road_2_1_2 road_1_1_1' />
<route id='W_E' edges='road_0_1_0 road_1_1_0' />
<route id='W_N' edges='road_0_1_0 road_1_1_1' />
<route id='W_S' edges='road_0_1_0 road_1_1_3' />
<vehicle id='S_N_0' type='standard_car' route='S_N' depart='5' departLane='random' departSpeed='10' />
<vehicle id='E_W_1' type='standard_car' route='E_W' depart='38' departLane='random' departSpeed='10' />
<vehicle id='E_W_2' type='standard_car' route='E_W' depart='40' departLane='random' departSpeed='10' />
<vehicle id='S_N_3' type='standard_car' route='S_N' depart='65' departLane='random' departSpeed='10' />
<vehicle id='S_N_4' type='standard_car' route='S_N' depart='67' departLane='random' departSpeed='10' />
<vehicle id='W_E_5' type='standard_car' route='W_E' depart='69' departLane='random' departSpeed='10' />
<vehicle id='W_N_6' type='standard_car' route='W_N' depart='69' departLane='random' departSpeed='10' />
<vehicle id='W_E_7' type='standard_car' route='W_E' depart='71' departLane='random' departSpeed='10' />
<vehicle id='S_N_8' type='standard_car' route='S_N' depart='73' departLane='random' departSpeed='10' />
<vehicle id='S_W_9' type='standard_car' route='S_W' depart='73' departLane='random' departSpeed='10' />
<vehicle id='S_N_10' type='standard_car' route='S_N' depart='77' departLane='random' departSpeed='10' />
<vehicle id='N_S_11' type='standard_car' route='N_S' depart='78' departLane='random' departSpeed='10' />
<vehicle id='N_S_12' type='standard_car' route='N_S' depart='81' departLane='random' departSpeed='10' />
<vehicle id='S_N_13' type='standard_car' route='S_N' depart='84' departLane='random' departSpeed='10' />
<vehicle id='N_S_14' type='standard_car' route='N_S' depart='85' departLane='random' departSpeed='10' />
<vehicle id='N_E_15' type='standard_car' route='N_E' depart='85' departLane='random' departSpeed='10' />
<vehicle id='N_S_16' type='standard_car' route='N_S' depart='93' departLane='random' departSpeed='10' />
<vehicle id='S_N_17' type='standard_car' route='S_N' depart='97' departLane='random' departSpeed='10' />
<vehicle id='S_W_18' type='standard_car' route='S_W' depart='97' departLane='random' departSpeed='10' />
<vehicle id='W_E_19' type='standard_car' route='W_E' depart='103' departLane='random' departSpeed='10' />
<vehicle id='N_S_20' type='standard_car' route='N_S' depart='108' departLane='random' departSpeed='10' />
<vehicle id='W_E_21' type='standard_car' route='W_E' depart='144' departLane='random' departSpeed='10' />
<vehicle id='W_E_22' type='standard_car' route='W_E' depart='154' departLane='random' departSpeed='10' />
<vehicle id='E_W_23' type='standard_car' route='E_W' depart='168' departLane='random' departSpeed='10' />
<vehicle id='S_N_24' type='standard_car' route='S_N' depart='173' departLane='random' departSpeed='10' />
<vehicle id='S_N_25' type='standard_car' route='S_N' depart='178' departLane='random' departSpeed='10' />
<vehicle id='S_N_26' type='standard_car' route='S_N' depart='185' departLane='random' departSpeed='10' />
<vehicle id='S_N_27' type='standard_car' route='S_N' depart='189' departLane='random' departSpeed='10' />
<vehicle id='E_W_28' type='standard_car' route='E_W' depart='210' departLane='random' departSpeed='10' />
<vehicle id='N_S_29' type='standard_car' route='N_S' depart='219' departLane='random' departSpeed='10' />
<vehicle id='N_S_30' type='standard_car' route='N_S' depart='234' departLane='random' departSpeed='10' />
<vehicle id='S_N_31' type='standard_car' route='S_N' depart='242' departLane='random' departSpeed='10' />
<vehicle id='S_N_32' type='standard_car' route='S_N' depart='247' departLane='random' departSpeed='10' />
<vehicle id='S_N_33' type='standard_car' route='S_N' depart='253' departLane='random' departSpeed='10' />
<vehicle id='S_N_34' type='standard_car' route='S_N' depart='268' departLane='random' departSpeed='10' />
<vehicle id='S_N_35' type='standard_car' route='S_N' depart='306' departLane='random' departSpeed='10' />
<vehicle id='S_N_36' type='standard_car' route='S_N' depart='309' departLane='random' departSpeed='10' />
<vehicle id='W_E_37' type='standard_car' route='W_E' depart='315' departLane='random' departSpeed='10' />
<vehicle id='S_N_38' type='standard_car' route='S_N' depart='327' departLane='random' departSpeed='10' />
<vehicle id='S_N_39' type='standard_car' route='S_N' depart='342' departLane='random' departSpeed='10' />
<vehicle id='S_N_40' type='standard_car' route='S_N' depart='374' departLane='random' departSpeed='10' />
<vehicle id='S_N_41' type='standard_car' route='S_N' depart='380' departLane='random' departSpeed='10' />
<vehicle id='E_W_42' type='standard_car' route='E_W' depart='391' departLane='random' departSpeed='10' />
<vehicle id='S_N_43' type='standard_car' route='S_N' depart='400' departLane='random' departSpeed='10' />
<vehicle id='S_W_44' type='standard_car' route='S_W' depart='400' departLane='random' departSpeed='10' />
<vehicle id='N_S_45' type='standard_car' route='N_S' depart='407' departLane='random' departSpeed='10' />
<vehicle id='N_S_46' type='standard_car' route='N_S' depart='412' departLane='random' departSpeed='10' />
<vehicle id='S_N_47' type='standard_car' route='S_N' depart='415' departLane='random' departSpeed='10' />
<vehicle id='N_S_48' type='standard_car' route='N_S' depart='416' departLane='random' departSpeed='10' />
<vehicle id='N_S_49' type='standard_car' route='N_S' depart='419' departLane='random' departSpeed='10' />
<vehicle id='S_N_50' type='standard_car' route='S_N' depart='422' departLane='random' departSpeed='10' />
<vehicle id='S_N_51' type='standard_car' route='S_N' depart='425' departLane='random' departSpeed='10' />
<vehicle id='W_E_52' type='standard_car' route='W_E' depart='427' departLane='random' departSpeed='10' />
<vehicle id='E_W_53' type='standard_car' route='E_W' depart='427' departLane='random' departSpeed='10' />
<vehicle id='S_N_54' type='standard_car' route='S_N' depart='428' departLane='random' departSpeed='10' />
<vehicle id='N_S_55' type='standard_car' route='N_S' depart='430' departLane='random' departSpeed='10' />
<vehicle id='N_S_56' type='standard_car' route='N_S' depart='436' departLane='random' departSpeed='10' />
<vehicle id='S_N_57' type='standard_car' route='S_N' depart='438' departLane='random' departSpeed='10' />
<vehicle id='N_S_58' type='standard_car' route='N_S' depart='454' departLane='random' departSpeed='10' />
<vehicle id='E_W_59' type='standard_car' route='E_W' depart='478' departLane='random' departSpeed='10' />
<vehicle id='S_N_60' type='standard_car' route='S_N' depart='490' departLane='random' departSpeed='10' />
<vehicle id='S_N_61' type='standard_car' route='S_N' depart='505' departLane='random' departSpeed='10' />
<vehicle id='S_N_62' type='standard_car' route='S_N' depart='518' departLane='random' departSpeed='10' />
<vehicle id='S_N_63' type='standard_car' route='S_N' depart='522' departLane='random' departSpeed='10' />
<vehicle id='S_W_64' type='standard_car' route='S_W' depart='522' departLane='random' departSpeed='10' />
<vehicle id='S_N_65' type='standard_car' route='S_N' depart='526' departLane='random' departSpeed='10' />
<vehicle id='S_N_66' type='standard_car' route='S_N' depart='528' departLane='random' departSpeed='10' />
<vehicle id='S_N_67' type='standard_car' route='S_N' depart='532' departLane='random' departSpeed='10' />
<vehicle id='N_S_68' type='standard_car' route='N_S' depart='532' departLane='random' departSpeed='10' />
<vehicle id='S_N_69' type='standard_car' route='S_N' depart='533' departLane='random' departSpeed='10' />
<vehicle id='S_N_70' type='standard_car' route='S_N' depart='541' departLane='random' departSpeed='10' />
<vehicle id='N_S_71' type='standard_car' route='N_S' depart='542' departLane='random' departSpeed='10' />
<vehicle id='N_E_72' type='standard_car' route='N_E' depart='542' departLane='random' departSpeed='10' />
<vehicle id='N_S_73' type='standard_car' route='N_S' depart='549' departLane='random' departSpeed='10' />
<vehicle id='N_S_74' type='standard_car' route='N_S' depart='556' departLane='random' departSpeed='10' />
<vehicle id='N_S_75' type='standard_car' route='N_S' depart='557' departLane='random' departSpeed='10' />
<vehicle id='E_W_76' type='standard_car' route='E_W' depart='573' departLane='random' departSpeed='10' />
<vehicle id='N_S_77' type='standard_car' route='N_S' depart='577' departLane='random' departSpeed='10' />
<vehicle id='W_E_78' type='standard_car' route='W_E' depart='587' departLane='random' departSpeed='10' />
<vehicle id='S_N_79' type='standard_car' route='S_N' depart='624' departLane='random' departSpeed='10' />
<vehicle id='S_N_80' type='standard_car' route='S_N' depart='639' departLane='random' departSpeed='10' />
<vehicle id='N_S_81' type='standard_car' route='N_S' depart='641' departLane='random' departSpeed='10' />
<vehicle id='N_E_82' type='standard_car' route='N_E' depart='641' departLane='random' departSpeed='10' />
<vehicle id='S_N_83' type='standard_car' route='S_N' depart='655' departLane='random' departSpeed='10' />
<vehicle id='S_N_84' type='standard_car' route='S_N' depart='656' departLane='random' departSpeed='10' />
<vehicle id='S_W_85' type='standard_car' route='S_W' depart='656' departLane='random' departSpeed='10' />
<vehicle id='S_N_86' type='standard_car' route='S_N' depart='659' departLane='random' departSpeed='10' />
<vehicle id='S_W_87' type='standard_car' route='S_W' depart='659' departLane='random' departSpeed='10' />
<vehicle id='S_N_88' type='standard_car' route='S_N' depart='664' departLane='random' departSpeed='10' />
<vehicle id='N_S_89' type='standard_car' route='N_S' depart='665' departLane='random' departSpeed='10' />
<vehicle id='S_N_90' type='standard_car' route='S_N' depart='673' departLane='random' departSpeed='10' />
<vehicle id='E_W_91' type='standard_car' route='E_W' depart='695' departLane='random' departSpeed='10' />
<vehicle id='N_S_92' type='standard_car' route='N_S' depart='697' departLane='random' departSpeed='10' />
<vehicle id='S_N_93' type='standard_car' route='S_N' depart='699' departLane='random' departSpeed='10' />
<vehicle id='S_W_94' type='standard_car' route='S_W' depart='699' departLane='random' departSpeed='10' />
<vehicle id='E_W_95' type='standard_car' route='E_W' depart='705' departLane='random' departSpeed='10' />
<vehicle id='W_E_96' type='standard_car' route='W_E' depart='729' departLane='random' departSpeed='10' />
<vehicle id='W_E_97' type='standard_car' route='W_E' depart='733' departLane='random' departSpeed='10' />
<vehicle id='S_N_98' type='standard_car' route='S_N' depart='734' departLane='random' departSpeed='10' />
<vehicle id='N_S_99' type='standard_car' route='N_S' depart='734' departLane='random' departSpeed='10' />
<vehicle id='S_N_100' type='standard_car' route='S_N' depart='736' departLane='random' departSpeed='10' />
<vehicle id='N_S_101' type='standard_car' route='N_S' depart='740' departLane='random' departSpeed='10' />
<vehicle id='S_N_102' type='standard_car' route='S_N' depart='741' departLane='random' departSpeed='10' />
<vehicle id='S_N_103' type='standard_car' route='S_N' depart='742' departLane='random' departSpeed='10' />
<vehicle id='S_W_104' type='standard_car' route='S_W' depart='742' departLane='random' departSpeed='10' />
<vehicle id='S_N_105' type='standard_car' route='S_N' depart='747' departLane='random' departSpeed='10' />
<vehicle id='N_S_106' type='standard_car' route='N_S' depart='747' departLane='random' departSpeed='10' />
<vehicle id='S_N_107' type='standard_car' route='S_N' depart='748' departLane='random' departSpeed='10' />
<vehicle id='S_N_108' type='standard_car' route='S_N' depart='749' departLane='random' departSpeed='10' />
<vehicle id='W_E_109' type='standard_car' route='W_E' depart='754' departLane='random' departSpeed='10' />
<vehicle id='W_N_110' type='standard_car' route='W_N' depart='754' departLane='random' departSpeed='10' />
<vehicle id='S_N_111' type='standard_car' route='S_N' depart='754' departLane='random' departSpeed='10' />
<vehicle id='S_N_112' type='standard_car' route='S_N' depart='762' departLane='random' departSpeed='10' />
<vehicle id='N_S_113' type='standard_car' route='N_S' depart='769' departLane='random' departSpeed='10' />
<vehicle id='N_E_114' type='standard_car' route='N_E' depart='769' departLane='random' departSpeed='10' />
<vehicle id='W_E_115' type='standard_car' route='W_E' depart='776' departLane='random' departSpeed='10' />
<vehicle id='S_N_116' type='standard_car' route='S_N' depart='776' departLane='random' departSpeed='10' />
<vehicle id='S_N_117' type='standard_car' route='S_N' depart='777' departLane='random' departSpeed='10' />
<vehicle id='W_E_118' type='standard_car' route='W_E' depart='812' departLane='random' departSpeed='10' />
<vehicle id='N_S_119' type='standard_car' route='N_S' depart='849' departLane='random' departSpeed='10' />
<vehicle id='E_W_120' type='standard_car' route='E_W' depart='852' departLane='random' departSpeed='10' />
<vehicle id='S_N_121' type='standard_car' route='S_N' depart='856' departLane='random' departSpeed='10' />
<vehicle id='N_S_122' type='standard_car' route='N_S' depart='857' departLane='random' departSpeed='10' />
<vehicle id='S_N_123' type='standard_car' route='S_N' depart='862' departLane='random' departSpeed='10' />
<vehicle id='S_N_124' type='standard_car' route='S_N' depart='869' departLane='random' departSpeed='10' />
<vehicle id='S_W_125' type='standard_car' route='S_W' depart='869' departLane='random' departSpeed='10' />
<vehicle id='S_N_126' type='standard_car' route='S_N' depart='873' departLane='random' departSpeed='10' />
<vehicle id='S_W_127' type='standard_car' route='S_W' depart='873' departLane='random' departSpeed='10' />
<vehicle id='N_S_128' type='standard_car' route='N_S' depart='876' departLane='random' departSpeed='10' />
<vehicle id='S_N_129' type='standard_car' route='S_N' depart='876' departLane='random' departSpeed='10' />
<vehicle id='S_N_130' type='standard_car' route='S_N' depart='882' departLane='random' departSpeed='10' />
<vehicle id='S_N_131' type='standard_car' route='S_N' depart='897' departLane='random' departSpeed='10' />
<vehicle id='S_N_132' type='standard_car' route='S_N' depart='898' departLane='random' departSpeed='10' />
<vehicle id='N_S_133' type='standard_car' route='N_S' depart='904' departLane='random' departSpeed='10' />
<vehicle id='W_E_134' type='standard_car' route='W_E' depart='904' departLane='random' departSpeed='10' />
<vehicle id='S_N_135' type='standard_car' route='S_N' depart='908' departLane='random' departSpeed='10' />
<vehicle id='E_W_136' type='standard_car' route='E_W' depart='912' departLane='random' departSpeed='10' />
<vehicle id='S_N_137' type='standard_car' route='S_N' depart='936' departLane='random' departSpeed='10' />
<vehicle id='S_N_138' type='standard_car' route='S_N' depart='945' departLane='random' departSpeed='10' />
<vehicle id='W_E_139' type='standard_car' route='W_E' depart='947' departLane='random' departSpeed='10' />
<vehicle id='S_N_140' type='standard_car' route='S_N' depart='952' departLane='random' departSpeed='10' />
<vehicle id='N_S_141' type='standard_car' route='N_S' depart='961' departLane='random' departSpeed='10' />
<vehicle id='S_N_142' type='standard_car' route='S_N' depart='966' departLane='random' departSpeed='10' />
<vehicle id='S_N_143' type='standard_car' route='S_N' depart='968' departLane='random' departSpeed='10' />
<vehicle id='S_W_144' type='standard_car' route='S_W' depart='968' departLane='random' departSpeed='10' />
<vehicle id='S_N_145' type='standard_car' route='S_N' depart='1008' departLane='random' departSpeed='10' />
<vehicle id='S_N_146' type='standard_car' route='S_N' depart='1009' departLane='random' departSpeed='10' />
<vehicle id='S_N_147' type='standard_car' route='S_N' depart='1021' departLane='random' departSpeed='10' />
<vehicle id='N_S_148' type='standard_car' route='N_S' depart='1024' departLane='random' departSpeed='10' />
<vehicle id='E_W_149' type='standard_car' route='E_W' depart='1029' departLane='random' departSpeed='10' />
<vehicle id='S_N_150' type='standard_car' route='S_N' depart='1061' departLane='random' departSpeed='10' />
<vehicle id='S_N_151' type='standard_car' route='S_N' depart='1069' departLane='random' departSpeed='10' />
<vehicle id='E_W_152' type='standard_car' route='E_W' depart='1069' departLane='random' departSpeed='10' />
<vehicle id='S_N_153' type='standard_car' route='S_N' depart='1069' departLane='random' departSpeed='10' />
<vehicle id='S_N_154' type='standard_car' route='S_N' depart='1070' departLane='random' departSpeed='10' />
<vehicle id='S_N_155' type='standard_car' route='S_N' depart='1072' departLane='random' departSpeed='10' />
<vehicle id='S_W_156' type='standard_car' route='S_W' depart='1072' departLane='random' departSpeed='10' />
<vehicle id='N_S_157' type='standard_car' route='N_S' depart='1079' departLane='random' departSpeed='10' />
<vehicle id='S_N_158' type='standard_car' route='S_N' depart='1081' departLane='random' departSpeed='10' />
<vehicle id='S_N_159' type='standard_car' route='S_N' depart='1083' departLane='random' departSpeed='10' />
<vehicle id='S_W_160' type='standard_car' route='S_W' depart='1083' departLane='random' departSpeed='10' />
<vehicle id='S_N_161' type='standard_car' route='S_N' depart='1085' departLane='random' departSpeed='10' />
<vehicle id='N_S_162' type='standard_car' route='N_S' depart='1086' departLane='random' departSpeed='10' />
<vehicle id='S_N_163' type='standard_car' route='S_N' depart='1086' departLane='random' departSpeed='10' />
<vehicle id='S_N_164' type='standard_car' route='S_N' depart='1087' departLane='random' departSpeed='10' />
<vehicle id='N_S_165' type='standard_car' route='N_S' depart='1089' departLane='random' departSpeed='10' />
<vehicle id='S_N_166' type='standard_car' route='S_N' depart='1091' departLane='random' departSpeed='10' />
<vehicle id='W_E_167' type='standard_car' route='W_E' depart='1092' departLane='random' departSpeed='10' />
<vehicle id='N_S_168' type='standard_car' route='N_S' depart='1092' departLane='random' departSpeed='10' />
<vehicle id='N_S_169' type='standard_car' route='N_S' depart='1094' departLane='random' departSpeed='10' />
<vehicle id='S_N_170' type='standard_car' route='S_N' depart='1095' departLane='random' departSpeed='10' />
<vehicle id='S_N_171' type='standard_car' route='S_N' depart='1096' departLane='random' departSpeed='10' />
<vehicle id='N_S_172' type='standard_car' route='N_S' depart='1096' departLane='random' departSpeed='10' />
<vehicle id='E_W_173' type='standard_car' route='E_W' depart='1097' departLane='random' departSpeed='10' />
<vehicle id='E_S_174' type='standard_car' route='E_S' depart='1097' departLane='random' departSpeed='10' />
<vehicle id='S_N_175' type='standard_car' route='S_N' depart='1107' departLane='random' departSpeed='10' />
<vehicle id='S_N_176' type='standard_car' route='S_N' depart='1108' departLane='random' departSpeed='10' />
<vehicle id='S_N_177' type='standard_car' route='S_N' depart='1110' departLane='random' departSpeed='10' />
<vehicle id='S_N_178' type='standard_car' route='S_N' depart='1114' departLane='random' departSpeed='10' />
<vehicle id='S_N_179' type='standard_car' route='S_N' depart='1126' departLane='random' departSpeed='10' />
<vehicle id='S_N_180' type='standard_car' route='S_N' depart='1130' departLane='random' departSpeed='10' />
<vehicle id='W_E_181' type='standard_car' route='W_E' depart='1138' departLane='random' departSpeed='10' />
<vehicle id='W_N_182' type='standard_car' route='W_N' depart='1138' departLane='random' departSpeed='10' />
<vehicle id='S_N_183' type='standard_car' route='S_N' depart='1150' departLane='random' departSpeed='10' />
<vehicle id='W_E_184' type='standard_car' route='W_E' depart='1164' departLane='random' departSpeed='10' />
<vehicle id='N_S_185' type='standard_car' route='N_S' depart='1173' departLane='random' departSpeed='10' />
<vehicle id='S_N_186' type='standard_car' route='S_N' depart='1175' departLane='random' departSpeed='10' />
<vehicle id='S_N_187' type='standard_car' route='S_N' depart='1177' departLane='random' departSpeed='10' />
<vehicle id='S_N_188' type='standard_car' route='S_N' depart='1180' departLane='random' departSpeed='10' />
<vehicle id='S_W_189' type='standard_car' route='S_W' depart='1180' departLane='random' departSpeed='10' />
<vehicle id='N_S_190' type='standard_car' route='N_S' depart='1184' departLane='random' departSpeed='10' />
<vehicle id='S_N_191' type='standard_car' route='S_N' depart='1185' departLane='random' departSpeed='10' />
<vehicle id='N_S_192' type='standard_car' route='N_S' depart='1189' departLane='random' departSpeed='10' />
<vehicle id='N_E_193' type='standard_car' route='N_E' depart='1189' departLane='random' departSpeed='10' />
<vehicle id='E_W_194' type='standard_car' route='E_W' depart='1189' departLane='random' departSpeed='10' />
<vehicle id='S_N_195' type='standard_car' route='S_N' depart='1190' departLane='random' departSpeed='10' />
<vehicle id='N_S_196' type='standard_car' route='N_S' depart='1193' departLane='random' departSpeed='10' />
<vehicle id='N_S_197' type='standard_car' route='N_S' depart='1194' departLane='random' departSpeed='10' />
<vehicle id='N_E_198' type='standard_car' route='N_E' depart='1194' departLane='random' departSpeed='10' />
<vehicle id='S_N_199' type='standard_car' route='S_N' depart='1195' departLane='random' departSpeed='10' />
<vehicle id='S_N_200' type='standard_car' route='S_N' depart='1196' departLane='random' departSpeed='10' />
<vehicle id='N_S_201' type='standard_car' route='N_S' depart='1196' departLane='random' departSpeed='10' />
<vehicle id='N_S_202' type='standard_car' route='N_S' depart='1199' departLane='random' departSpeed='10' />
<vehicle id='S_N_203' type='standard_car' route='S_N' depart='1201' departLane='random' departSpeed='10' />
<vehicle id='S_N_204' type='standard_car' route='S_N' depart='1203' departLane='random' departSpeed='10' />
<vehicle id='N_S_205' type='standard_car' route='N_S' depart='1204' departLane='random' departSpeed='10' />
<vehicle id='S_N_206' type='standard_car' route='S_N' depart='1205' departLane='random' departSpeed='10' />
<vehicle id='S_W_207' type='standard_car' route='S_W' depart='1205' departLane='random' departSpeed='10' />
<vehicle id='N_S_208' type='standard_car' route='N_S' depart='1206' departLane='random' departSpeed='10' />
<vehicle id='W_E_209' type='standard_car' route='W_E' depart='1206' departLane='random' departSpeed='10' />
<vehicle id='S_N_210' type='standard_car' route='S_N' depart='1210' departLane='random' departSpeed='10' />
<vehicle id='E_W_211' type='standard_car' route='E_W' depart='1217' departLane='random' departSpeed='10' />
<vehicle id='S_N_212' type='standard_car' route='S_N' depart='1220' departLane='random' departSpeed='10' />
<vehicle id='E_W_213' type='standard_car' route='E_W' depart='1220' departLane='random' departSpeed='10' />
<vehicle id='S_N_214' type='standard_car' route='S_N' depart='1221' departLane='random' departSpeed='10' />
<vehicle id='S_N_215' type='standard_car' route='S_N' depart='1263' departLane='random' departSpeed='10' />
<vehicle id='W_E_216' type='standard_car' route='W_E' depart='1266' departLane='random' departSpeed='10' />
<vehicle id='S_N_217' type='standard_car' route='S_N' depart='1270' departLane='random' departSpeed='10' />
<vehicle id='S_N_218' type='standard_car' route='S_N' depart='1273' departLane='random' departSpeed='10' />
<vehicle id='S_N_219' type='standard_car' route='S_N' depart='1276' departLane='random' departSpeed='10' />
<vehicle id='S_N_220' type='standard_car' route='S_N' depart='1278' departLane='random' departSpeed='10' />
<vehicle id='S_N_221' type='standard_car' route='S_N' depart='1282' departLane='random' departSpeed='10' />
<vehicle id='N_S_222' type='standard_car' route='N_S' depart='1284' departLane='random' departSpeed='10' />
<vehicle id='S_N_223' type='standard_car' route='S_N' depart='1287' departLane='random' departSpeed='10' />
<vehicle id='S_N_224' type='standard_car' route='S_N' depart='1293' departLane='random' departSpeed='10' />
<vehicle id='S_N_225' type='standard_car' route='S_N' depart='1298' departLane='random' departSpeed='10' />
<vehicle id='S_W_226' type='standard_car' route='S_W' depart='1298' departLane='random' departSpeed='10' />
<vehicle id='W_E_227' type='standard_car' route='W_E' depart='1299' departLane='random' departSpeed='10' />
<vehicle id='W_E_228' type='standard_car' route='W_E' depart='1304' departLane='random' departSpeed='10' />
<vehicle id='S_N_229' type='standard_car' route='S_N' depart='1318' departLane='random' departSpeed='10' />
<vehicle id='S_N_230' type='standard_car' route='S_N' depart='1322' departLane='random' departSpeed='10' />
<vehicle id='N_S_231' type='standard_car' route='N_S' depart='1340' departLane='random' departSpeed='10' />
<vehicle id='S_N_232' type='standard_car' route='S_N' depart='1375' departLane='random' departSpeed='10' />
<vehicle id='W_E_233' type='standard_car' route='W_E' depart='1377' departLane='random' departSpeed='10' />
<vehicle id='S_N_234' type='standard_car' route='S_N' depart='1390' departLane='random' departSpeed='10' />
<vehicle id='N_S_235' type='standard_car' route='N_S' depart='1392' departLane='random' departSpeed='10' />
<vehicle id='W_E_236' type='standard_car' route='W_E' depart='1393' departLane='random' departSpeed='10' />
<vehicle id='W_N_237' type='standard_car' route='W_N' depart='1393' departLane='random' departSpeed='10' />
<vehicle id='S_N_238' type='standard_car' route='S_N' depart='1398' departLane='random' departSpeed='10' />
<vehicle id='N_S_239' type='standard_car' route='N_S' depart='1399' departLane='random' departSpeed='10' />
<vehicle id='N_S_240' type='standard_car' route='N_S' depart='1399' departLane='random' departSpeed='10' />
<vehicle id='N_S_241' type='standard_car' route='N_S' depart='1402' departLane='random' departSpeed='10' />
<vehicle id='S_N_242' type='standard_car' route='S_N' depart='1404' departLane='random' departSpeed='10' />
<vehicle id='S_N_243' type='standard_car' route='S_N' depart='1404' departLane='random' departSpeed='10' />
<vehicle id='S_N_244' type='standard_car' route='S_N' depart='1408' departLane='random' departSpeed='10' />
<vehicle id='S_N_245' type='standard_car' route='S_N' depart='1410' departLane='random' departSpeed='10' />
<vehicle id='S_N_246' type='standard_car' route='S_N' depart='1418' departLane='random' departSpeed='10' />
<vehicle id='S_N_247' type='standard_car' route='S_N' depart='1421' departLane='random' departSpeed='10' />
<vehicle id='S_N_248' type='standard_car' route='S_N' depart='1424' departLane='random' departSpeed='10' />
<vehicle id='S_N_249' type='standard_car' route='S_N' depart='1436' departLane='random' departSpeed='10' />
<vehicle id='W_E_250' type='standard_car' route='W_E' depart='1466' departLane='random' departSpeed='10' />
<vehicle id='W_E_251' type='standard_car' route='W_E' depart='1467' departLane='random' departSpeed='10' />
<vehicle id='E_W_252' type='standard_car' route='E_W' depart='1473' departLane='random' departSpeed='10' />
<vehicle id='S_N_253' type='standard_car' route='S_N' depart='1478' departLane='random' departSpeed='10' />
<vehicle id='S_W_254' type='standard_car' route='S_W' depart='1478' departLane='random' departSpeed='10' />
<vehicle id='S_N_255' type='standard_car' route='S_N' depart='1481' departLane='random' departSpeed='10' />
<vehicle id='S_W_256' type='standard_car' route='S_W' depart='1481' departLane='random' departSpeed='10' />
<vehicle id='S_N_257' type='standard_car' route='S_N' depart='1502' departLane='random' departSpeed='10' />
<vehicle id='S_N_258' type='standard_car' route='S_N' depart='1504' departLane='random' departSpeed='10' />
<vehicle id='N_S_259' type='standard_car' route='N_S' depart='1515' departLane='random' departSpeed='10' />
<vehicle id='S_N_260' type='standard_car' route='S_N' depart='1519' departLane='random' departSpeed='10' />
<vehicle id='S_N_261' type='standard_car' route='S_N' depart='1519' departLane='random' departSpeed='10' />
<vehicle id='N_S_262' type='standard_car' route='N_S' depart='1525' departLane='random' departSpeed='10' />
<vehicle id='E_W_263' type='standard_car' route='E_W' depart='1526' departLane='random' departSpeed='10' />
<vehicle id='W_E_264' type='standard_car' route='W_E' depart='1539' departLane='random' departSpeed='10' />
<vehicle id='N_S_265' type='standard_car' route='N_S' depart='1555' departLane='random' departSpeed='10' />
<vehicle id='E_W_266' type='standard_car' route='E_W' depart='1575' departLane='random' departSpeed='10' />
<vehicle id='E_S_267' type='standard_car' route='E_S' depart='1575' departLane='random' departSpeed='10' />
<vehicle id='W_E_268' type='standard_car' route='W_E' depart='1577' departLane='random' departSpeed='10' />
<vehicle id='S_N_269' type='standard_car' route='S_N' depart='1595' departLane='random' departSpeed='10' />
<vehicle id='S_N_270' type='standard_car' route='S_N' depart='1600' departLane='random' departSpeed='10' />
<vehicle id='W_E_271' type='standard_car' route='W_E' depart='1614' departLane='random' departSpeed='10' />
<vehicle id='S_N_272' type='standard_car' route='S_N' depart='1614' departLane='random' departSpeed='10' />