<routes>
    <vType id="standard_car" length='5.0' maxSpeed='11.11' minGap='2.5' accel='2.0' decel='4.5' />
<route id='N_S' edges='road_1_2_3 road_1_1_3' />
<route id='N_E' edges='road_1_2_3 road_1_1_0' />
<route id='N_W' edges='road_1_2_3 road_1_1_2' />
<route id='S_N' edges='road_1_0_1 road_1_1_1' />
<route id='S_W' edges='road_1_0_1 road_1_1_2' />
<route id='S_E' edges='road_1_0_1 road_1_1_0' />
<route id='E_W' edges='road_2_1_2 road_1_1_2' />
<route id='E_S' edges='road_2_1_2 road_1_1_3' />
<route id='E_N' edges='road_2_1_2 road_1_1_1' />
<route id='W_E' edges='road_0_1_0 road_1_1_0' />
<route id='W_N' edges='road_0_1_0 road_1_1_1' />
<route id='W_S' edges='road_0_1_0 road_1_1_3' />
<vehicle id='N_S_0' type='standard_car' route='N_S' depart='0' departLane='random' departSpeed='10' />
<vehicle id='S_N_1' type='standard_car' route='S_N' depart='1' departLane='random' departSpeed='10' />
<vehicle id='S_N_2' type='standard_car' route='S_N' depart='3' departLane='random' departSpeed='10' />
<vehicle id='S_N_3' type='standard_car' route='S_N' depart='5' departLane='random' departSpeed='10' />
<vehicle id='S_W_4' type='standard_car' route='S_W' depart='5' departLane='random' departSpeed='10' />
<vehicle id='N_S_5' type='standard_car' route='N_S' depart='25' departLane='random' departSpeed='10' />
<vehicle id='E_W_6' type='standard_car' route='E_W' depart='33' departLane='random' departSpeed='10' />
<vehicle id='E_S_7' type='standard_car' route='E_S' depart='33' departLane='random' departSpeed='10' />
<vehicle id='W_E_8' type='standard_car' route='W_E' depart='35' departLane='random' departSpeed='10' />
<vehicle id='E_W_9' type='standard_car' route='E_W' depart='38' departLane='random' departSpeed='10' />
<vehicle id='N_S_10' type='standard_car' route='N_S' depart='42' departLane='random' departSpeed='10' />
<vehicle id='E_W_11' type='standard_car' route='E_W' depart='48' departLane='random' departSpeed='10' />
<vehicle id='W_E_12' type='standard_car' route='W_E' depart='50' departLane='random' departSpeed='10' />
<vehicle id='W_N_13' type='standard_car' route='W_N' depart='50' departLane='random' departSpeed='10' />
<vehicle id='E_W_14' type='standard_car' route='E_W' depart='51' departLane='random' departSpeed='10' />
<vehicle id='E_W_15' type='standard_car' route='E_W' depart='53' departLane='random' departSpeed='10' />
<vehicle id='W_E_16' type='standard_car' route='W_E' depart='60' departLane='random' departSpeed='10' />
<vehicle id='E_W_17' type='standard_car' route='E_W' depart='63' departLane='random' departSpeed='10' />
<vehicle id='W_E_18' type='standard_car' route='W_E' depart='66' departLane='random' departSpeed='10' />
<vehicle id='E_W_19' type='standard_car' route='E_W' depart='66' departLane='random' departSpeed='10' />
<vehicle id='E_S_20' type='standard_car' route='E_S' depart='66' departLane='random' departSpeed='10' />
<vehicle id='E_W_21' type='standard_car' route='E_W' depart='68' departLane='random' departSpeed='10' />
<vehicle id='W_E_22' type='standard_car' route='W_E' depart='69' departLane='random' departSpeed='10' />
<vehicle id='W_E_23' type='standard_car' route='W_E' depart='69' departLane='random' departSpeed='10' />
<vehicle id='E_W_24' type='standard_car' route='E_W' depart='72' departLane='random' departSpeed='10' />
<vehicle id='E_S_25' type='standard_car' route='E_S' depart='72' departLane='random' departSpeed='10' />
<vehicle id='E_W_26' type='standard_car' route='E_W' depart='76' departLane='random' departSpeed='10' />
<vehicle id='E_W_27' type='standard_car' route='E_W' depart='82' departLane='random' departSpeed='10' />
<vehicle id='W_E_28' type='standard_car' route='W_E' depart='85' departLane='random' departSpeed='10' />
<vehicle id='W_N_29' type='standard_car' route='W_N' depart='85' departLane='random' departSpeed='10' />
<vehicle id='S_N_30' type='standard_car' route='S_N' depart='107' departLane='random' departSpeed='10' />
<vehicle id='N_S_31' type='standard_car' route='N_S' depart='128' departLane='random' departSpeed='10' />
<vehicle id='S_N_32' type='standard_car' route='S_N' depart='128' departLane='random' departSpeed='10' />
<vehicle id='S_N_33' type='standard_car' route='S_N' depart='130' departLane='random' departSpeed='10' />
<vehicle id='S_N_34' type='standard_car' route='S_N' depart='132' departLane='random' departSpeed='10' />
<vehicle id='N_S_35' type='standard_car' route='N_S' depart='135' departLane='random' departSpeed='10' />
<vehicle id='N_S_36' type='standard_car' route='N_S' depart='145' departLane='random' departSpeed='10' />
<vehicle id='E_W_37' type='standard_car' route='E_W' depart='151' departLane='random' departSpeed='10' />
<vehicle id='W_E_38' type='standard_car' route='W_E' depart='162' departLane='random' departSpeed='10' />
<vehicle id='E_W_39' type='standard_car' route='E_W' depart='166' departLane='random' departSpeed='10' />
<vehicle id='N_S_40' type='standard_car' route='N_S' depart='166' departLane='random' departSpeed='10' />
<vehicle id='W_E_41' type='standard_car' route='W_E' depart='166' departLane='random' departSpeed='10' />
<vehicle id='W_E_42' type='standard_car' route='W_E' depart='171' departLane='random' departSpeed='10' />
<vehicle id='W_E_43' type='standard_car' route='W_E' depart='191' departLane='random' departSpeed='10' />
<vehicle id='W_E_44' type='standard_car' route='W_E' depart='194' departLane='random' departSpeed='10' />
<vehicle id='W_E_45' type='standard_car' route='W_E' depart='195' departLane='random' departSpeed='10' />
<vehicle id='W_N_46' type='standard_car' route='W_N' depart='195' departLane='random' departSpeed='10' />
<vehicle id='W_E_47' type='standard_car' route='W_E' depart='198' departLane='random' departSpeed='10' />
<vehicle id='W_E_48' type='standard_car' route='W_E' depart='199' departLane='random' departSpeed='10' />
<vehicle id='E_W_49' type='standard_car' route='E_W' depart='200' departLane='random' departSpeed='10' />
<vehicle id='W_E_50' type='standard_car' route='W_E' depart='201' departLane='random' departSpeed='10' />
<vehicle id='W_N_51' type='standard_car' route='W_N' depart='201' departLane='random' departSpeed='10' />
<vehicle id='E_W_52' type='standard_car' route='E_W' depart='204' departLane='random' departSpeed='10' />
<vehicle id='E_W_53' type='standard_car' route='E_W' depart='207' departLane='random' departSpeed='10' />
<vehicle id='E_W_54' type='standard_car' route='E_W' depart='210' departLane='random' departSpeed='10' />
<vehicle id='W_E_55' type='standard_car' route='W_E' depart='211' departLane='random' departSpeed='10' />
<vehicle id='E_W_56' type='standard_car' route='E_W' depart='215' departLane='random' departSpeed='10' />
<vehicle id='E_S_57' type='standard_car' route='E_S' depart='215' departLane='random' departSpeed='10' />
<vehicle id='N_S_58' type='standard_car' route='N_S' depart='215' departLane='random' departSpeed='10' />
<vehicle id='N_S_59' type='standard_car' route='N_S' depart='226' departLane='random' departSpeed='10' />
<vehicle id='N_S_60' type='standard_car' route='N_S' depart='228' departLane='random' departSpeed='10' />
<vehicle id='N_E_61' type='standard_car' route='N_E' depart='228' departLane='random' departSpeed='10' />
<vehicle id='S_N_62' type='standard_car' route='S_N' depart='231' departLane='random' departSpeed='10' />
<vehicle id='N_S_63' type='standard_car' route='N_S' depart='234' departLane='random' departSpeed='10' />
<vehicle id='N_S_64' type='standard_car' route='N_S' depart='235' departLane='random' departSpeed='10' />
<vehicle id='N_S_65' type='standard_car' route='N_S' depart='237' departLane='random' departSpeed='10' />
<vehicle id='N_S_66' type='standard_car' route='N_S' depart='240' departLane='random' departSpeed='10' />
<vehicle id='N_S_67' type='standard_car' route='N_S' depart='256' departLane='random' departSpeed='10' />
<vehicle id='N_S_68' type='standard_car' route='N_S' depart='256' departLane='random' departSpeed='10' />
<vehicle id='N_S_69' type='standard_car' route='N_S' depart='260' departLane='random' departSpeed='10' />
<vehicle id='S_N_70' type='standard_car' route='S_N' depart='261' departLane='random' departSpeed='10' />
<vehicle id='S_N_71' type='standard_car' route='S_N' depart='268' departLane='random' departSpeed='10' />
<vehicle id='S_N_72' type='standard_car' route='S_N' depart='272' departLane='random' departSpeed='10' />
<vehicle id='S_N_73' type='standard_car' route='S_N' depart='275' departLane='random' departSpeed='10' />
<vehicle id='S_W_74' type='standard_car' route='S_W' depart='275' departLane='random' departSpeed='10' />
<vehicle id='N_S_75' type='standard_car' route='N_S' depart='293' departLane='random' departSpeed='10' />
<vehicle id='E_W_76' type='standard_car' route='E_W' depart='296' departLane='random' departSpeed='10' />
<vehicle id='E_W_77' type='standard_car' route='E_W' depart='301' departLane='random' departSpeed='10' />
<vehicle id='W_E_78' type='standard_car' route='W_E' depart='302' departLane='random' departSpeed='10' />
<vehicle id='W_N_79' type='standard_car' route='W_N' depart='302' departLane='random' departSpeed='10' />
<vehicle id='W_E_80' type='standard_car' route='W_E' depart='309' departLane='random' departSpeed='10' />
<vehicle id='W_E_81' type='standard_car' route='W_E' depart='312' departLane='random' departSpeed='10' />
<vehicle id='W_E_82' type='standard_car' route='W_E' depart='319' departLane='random' departSpeed='10' />
<vehicle id='E_W_83' type='standard_car' route='E_W' depart='326' departLane='random' departSpeed='10' />
<vehicle id='W_E_84' type='standard_car' route='W_E' depart='335' departLane='random' departSpeed='10' />
<vehicle id='W_E_85' type='standard_car' route='W_E' depart='336' departLane='random' departSpeed='10' />
<vehicle id='E_W_86' type='standard_car' route='E_W' depart='339' departLane='random' departSpeed='10' />
<vehicle id='W_E_87' type='standard_car' route='W_E' depart='339' departLane='random' departSpeed='10' />
<vehicle id='W_E_88' type='standard_car' route='W_E' depart='341' departLane='random' departSpeed='10' />
<vehicle id='S_N_89' type='standard_car' route='S_N' depart='342' departLane='random' departSpeed='10' />
<vehicle id='E_W_90' type='standard_car' route='E_W' depart='348' departLane='random' departSpeed='10' />
<vehicle id='W_E_91' type='standard_car' route='W_E' depart='351' departLane='random' departSpeed='10' />
<vehicle id='E_W_92' type='standard_car' route='E_W' depart='351' departLane='random' departSpeed='10' />
<vehicle id='N_S_93' type='standard_car' route='N_S' depart='366' departLane='random' departSpeed='10' />
<vehicle id='E_W_94' type='standard_car' route='E_W' depart='377' departLane='random' departSpeed='10' />
<vehicle id='N_S_95' type='standard_car' route='N_S' depart='380' departLane='random' departSpeed='10' />
<vehicle id='N_E_96' type='standard_car' route='N_E' depart='380' departLane='random' departSpeed='10' />
<vehicle id='W_E_97' type='standard_car' route='W_E' depart='385' departLane='random' departSpeed='10' />
<vehicle id='W_N_98' type='standard_car' route='W_N' depart='385' departLane='random' departSpeed='10' />
<vehicle id='N_S_99' type='standard_car' route='N_S' depart='402' departLane='random' departSpeed='10' />
<vehicle id='N_S_100' type='standard_car' route='N_S' depart='422' departLane='random' departSpeed='10' />
<vehicle id='S_N_101' type='standard_car' route='S_N' depart='423' departLane='random' departSpeed='10' />
<vehicle id='N_S_102' type='standard_car' route='N_S' depart='426' departLane='random' departSpeed='10' />
<vehicle id='E_W_103' type='standard_car' route='E_W' depart='430' departLane='random' departSpeed='10' />
<vehicle id='N_S_104' type='standard_car' route='N_S' depart='431' departLane='random' departSpeed='10' />
<vehicle id='N_S_105' type='standard_car' route='N_S' depart='434' departLane='random' departSpeed='10' />
<vehicle id='E_W_106' type='standard_car' route='E_W' depart='446' departLane='random' departSpeed='10' />
<vehicle id='E_W_107' type='standard_car' route='E_W' depart='461' departLane='random' departSpeed='10' />
<vehicle id='S_N_108' type='standard_car' route='S_N' depart='464' departLane='random' departSpeed='10' />
<vehicle id='W_E_109' type='standard_car' route='W_E' depart='485' departLane='random' departSpeed='10' />
<vehicle id='E_W_110' type='standard_car' route='E_W' depart='487' departLane='random' departSpeed='10' />
<vehicle id='E_W_111' type='standard_car' route='E_W' depart='488' departLane='random' departSpeed='10' />
<vehicle id='W_E_112' type='standard_car' route='W_E' depart='491' departLane='random' departSpeed='10' />
<vehicle id='E_W_113' type='standard_car' route='E_W' depart='502' departLane='random' departSpeed='10' />
<vehicle id='E_S_114' type='standard_car' route='E_S' depart='502' departLane='random' departSpeed='10' />
<vehicle id='S_N_115' type='standard_car' route='S_N' depart='503' departLane='random' departSpeed='10' />
<vehicle id='N_S_116' type='standard_car' route='N_S' depart='503' departLane='random' departSpeed='10' />
<vehicle id='E_W_117' type='standard_car' route='E_W' depart='505' departLane='random' departSpeed='10' />
<vehicle id='W_E_118' type='standard_car' route='W_E' depart='511' departLane='random' departSpeed='10' />
<vehicle id='E_W_119' type='standard_car' route='E_W' depart='518' departLane='random' departSpeed='10' />
<vehicle id='W_E_120' type='standard_car' route='W_E' depart='519' departLane='random' departSpeed='10' />
<vehicle id='W_N_121' type='standard_car' route='W_N' depart='519' departLane='random' departSpeed='10' />
<vehicle id='W_E_122' type='standard_car' route='W_E' depart='525' departLane='random' departSpeed='10' />
<vehicle id='W_E_123' type='standard_car' route='W_E' depart='528' departLane='random' departSpeed='10' />
<vehicle id='E_W_124' type='standard_car' route='E_W' depart='530' departLane='random' departSpeed='10' />
<vehicle id='E_W_125' type='standard_car' route='E_W' depart='531' departLane='random' departSpeed='10' />
<vehicle id='E_W_126' type='standard_car' route='E_W' depart='532' departLane='random' departSpeed='10' />
<vehicle id='E_S_127' type='standard_car' route='E_S' depart='532' departLane='random' departSpeed='10' />
<vehicle id='W_E_128' type='standard_car' route='W_E' depart='534' departLane='random' departSpeed='10' />
<vehicle id='E_W_129' type='standard_car' route='E_W' depart='535' departLane='random' departSpeed='10' />
<vehicle id='W_E_130' type='standard_car' route='W_E' depart='536' departLane='random' departSpeed='10' />
<vehicle id='E_W_131' type='standard_car' route='E_W' depart='536' departLane='random' departSpeed='10' />
<vehicle id='E_W_132' type='standard_car' route='E_W' depart='537' departLane='random' departSpeed='10' />
<vehicle id='E_W_133' type='standard_car' route='E_W' depart='538' departLane='random' departSpeed='10' />
<vehicle id='E_W_134' type='standard_car' route='E_W' depart='539' departLane='random' departSpeed='10' />
<vehicle id='E_W_135' type='standard_car' route='E_W' depart='543' departLane='random' departSpeed='10' />
<vehicle id='E_W_136' type='standard_car' route='E_W' depart='544' departLane='random' departSpeed='10' />
<vehicle id='E_W_137' type='standard_car' route='E_W' depart='545' departLane='random' departSpeed='10' />
<vehicle id='E_S_138' type='standard_car' route='E_S' depart='545' departLane='random' departSpeed='10' />
<vehicle id='E_W_139' type='standard_car' route='E_W' depart='548' departLane='random' departSpeed='10' />
<vehicle id='E_W_140' type='standard_car' route='E_W' depart='555' departLane='random' departSpeed='10' />
<vehicle id='E_W_141' type='standard_car' route='E_W' depart='559' departLane='random' departSpeed='10' />
<vehicle id='E_W_142' type='standard_car' route='E_W' depart='563' departLane='random' departSpeed='10' />
<vehicle id='E_W_143' type='standard_car' route='E_W' depart='567' departLane='random' departSpeed='10' />
<vehicle id='E_S_144' type='standard_car' route='E_S' depart='567' departLane='random' departSpeed='10' />
<vehicle id='W_E_145' type='standard_car' route='W_E' depart='572' departLane='random' departSpeed='10' />
<vehicle id='W_N_146' type='standard_car' route='W_N' depart='572' departLane='random' departSpeed='10' />
<vehicle id='N_S_147' type='standard_car' route='N_S' depart='580' departLane='random' departSpeed='10' />
<vehicle id='N_S_148' type='standard_car' route='N_S' depart='614' departLane='random' departSpeed='10' />
<vehicle id='S_N_149' type='standard_car' route='S_N' depart='616' departLane='random' departSpeed='10' />
<vehicle id='N_S_150' type='standard_car' route='N_S' depart='617' departLane='random' departSpeed='10' />
<vehicle id='N_S_151' type='standard_car' route='N_S' depart='617' departLane='random' departSpeed='10' />
<vehicle id='N_S_152' type='standard_car' route='N_S' depart='618' departLane='random' departSpeed='10' />
<vehicle id='N_S_153' type='standard_car' route='N_S' depart='619' departLane='random' departSpeed='10' />
<vehicle id='N_E_154' type='standard_car' route='N_E' depart='619' departLane='random' departSpeed='10' />
<vehicle id='N_S_155' type='standard_car' route='N_S' depart='624' departLane='random' departSpeed='10' />
<vehicle id='N_E_156' type='standard_car' route='N_E' depart='624' departLane='random' departSpeed='10' />
<vehicle id='S_N_157' type='standard_car' route='S_N' depart='628' departLane='random' departSpeed='10' />
<vehicle id='N_S_158' type='standard_car' route='N_S' depart='629' departLane='random' departSpeed='10' />
<vehicle id='N_E_159' type='standard_car' route='N_E' depart='629' departLane='random' departSpeed='10' />
<vehicle id='E_W_160' type='standard_car' route='E_W' depart='633' departLane='random' departSpeed='10' />
<vehicle id='E_W_161' type='standard_car' route='E_W' depart='634' departLane='random' departSpeed='10' />
<vehicle id='S_N_162' type='standard_car' route='S_N' depart='637' departLane='random' departSpeed='10' />
<vehicle id='S_W_163' type='standard_car' route='S_W' depart='637' departLane='random' departSpeed='10' />
<vehicle id='N_S_164' type='standard_car' route='N_S' depart='663' departLane='random' departSpeed='10' />
<vehicle id='W_E_165' type='standard_car' route='W_E' depart='672' departLane='random' departSpeed='10' />
<vehicle id='N_S_166' type='standard_car' route='N_S' depart='673' departLane='random' departSpeed='10' />
<vehicle id='E_W_167' type='standard_car' route='E_W' depart='677' departLane='random' departSpeed='10' />
<vehicle id='E_W_168' type='standard_car' route='E_W' depart='680' departLane='random' departSpeed='10' />
<vehicle id='N_S_169' type='standard_car' route='N_S' depart='680' departLane='random' departSpeed='10' />
<vehicle id='N_S_170' type='standard_car' route='N_S' depart='684' departLane='random' departSpeed='10' />
<vehicle id='E_W_171' type='standard_car' route='E_W' depart='685' departLane='random' departSpeed='10' />
<vehicle id='E_W_172' type='standard_car' route='E_W' depart='688' departLane='random' departSpeed='10' />
<vehicle id='E_W_173' type='standard_car' route='E_W' depart='695' departLane='random' departSpeed='10' />
<vehicle id='E_W_174' type='standard_car' route='E_W' depart='699' departLane='random' departSpeed='10' />
<vehicle id='E_W_175' type='standard_car' route='E_W' depart='700' departLane='random' departSpeed='10' />
<vehicle id='E_W_176' type='standard_car' route='E_W' depart='705' departLane='random' departSpeed='10' />
<vehicle id='E_S_177' type='standard_car' route='E_S' depart='705' departLane='random' departSpeed='10' />
<vehicle id='E_W_178' type='standard_car' route='E_W' depart='707' departLane='random' departSpeed='10' />
<vehicle id='E_S_179' type='standard_car' route='E_S' depart='707' departLane='random' departSpeed='10' />
<vehicle id='W_E_180' type='standard_car' route='W_E' depart='708' departLane='random' departSpeed='10' />
<vehicle id='E_W_181' type='standard_car' route='E_W' depart='708' departLane='random' departSpeed='10' />
<vehicle id='E_W_182' type='standard_car' route='E_W' depart='709' departLane='random' departSpeed='10' />
<vehicle id='E_S_183' type='standard_car' route='E_S' depart='709' departLane='random' departSpeed='10' />
<vehicle id='E_W_184' type='standard_car' route='E_W' depart='710' departLane='random' departSpeed='10' />
<vehicle id='W_E_185' type='standard_car' route='W_E' depart='710' departLane='random' departSpeed='10' />
<vehicle id='W_E_186' type='standard_car' route='W_E' depart='713' departLane='random' departSpeed='10' />
<vehicle id='E_W_187' type='standard_car' route='E_W' depart='713' departLane='random' departSpeed='10' />
<vehicle id='W_E_188' type='standard_car' route='W_E' depart='713' departLane='random' departSpeed='10' />
<vehicle id='W_E_189' type='standard_car' route='W_E' depart='715' departLane='random' departSpeed='10' />
<vehicle id='E_W_190' type='standard_car' route='E_W' depart='719' departLane='random' departSpeed='10' />
<vehicle id='W_E_191' type='standard_car' route='W_E' depart='720' departLane='random' departSpeed='10' />
<vehicle id='W_E_192' type='standard_car' route='W_E' depart='720' departLane='random' departSpeed='10' />
<vehicle id='W_E_193' type='standard_car' route='W_E' depart='721' departLane='random' departSpeed='10' />
<vehicle id='W_E_194' type='standard_car' route='W_E' depart='721' departLane='random' departSpeed='10' />
<vehicle id='W_N_195' type='standard_car' route='W_N' depart='721' departLane='random' departSpeed='10' />
<vehicle id='E_W_196' type='standard_car' route='E_W' depart='721' departLane='random' departSpeed='10' />
<vehicle id='W_E_197' type='standard_car' route='W_E' depart='722' departLane='random' departSpeed='10' />
<vehicle id='W_N_198' type='standard_car' route='W_N' depart='722' departLane='random' departSpeed='10' />
<vehicle id='E_W_199' type='standard_car' route='E_W' depart='723' departLane='random' departSpeed='10' />
<vehicle id='W_E_200' type='standard_car' route='W_E' depart='724' departLane='random' departSpeed='10' />
<vehicle id='W_N_201' type='standard_car' route='W_N' depart='724' departLane='random' departSpeed='10' />
<vehicle id='E_W_202' type='standard_car' route='E_W' depart='724' departLane='random' departSpeed='10' />
<vehicle id='W_E_203' type='standard_car' route='W_E' depart='727' departLane='random' departSpeed='10' />
<vehicle id='E_W_204' type='standard_car' route='E_W' depart='732' departLane='random' departSpeed='10' />
<vehicle id='E_W_205' type='standard_car' route='E_W' depart='732' departLane='random' departSpeed='10' />
<vehicle id='E_W_206' type='standard_car' route='E_W' depart='733' departLane='random' departSpeed='10' />
<vehicle id='E_W_207' type='standard_car' route='E_W' depart='734' departLane='random' departSpeed='10' />
<vehicle id='E_W_208' type='standard_car' route='E_W' depart='734' departLane='random' departSpeed='10' />
<vehicle id='E_W_209' type='standard_car' route='E_W' depart='736' departLane='random' departSpeed='10' />
<vehicle id='E_W_210' type='standard_car' route='E_W' depart='736' departLane='random' departSpeed='10' />
<vehicle id='E_W_211' type='standard_car' route='E_W' depart='739' departLane='random' departSpeed='10' />
<vehicle id='E_W_212' type='standard_car' route='E_W' depart='743' departLane='random' departSpeed='10' />
<vehicle id='S_N_213' type='standard_car' route='S_N' depart='745' departLane='random' departSpeed='10' />
<vehicle id='S_N_214' type='standard_car' route='S_N' depart='748' departLane='random' departSpeed='10' />
<vehicle id='E_W_215' type='standard_car' route='E_W' depart='755' departLane='random' departSpeed='10' />
<vehicle id='N_S_216' type='standard_car' route='N_S' depart='795' departLane='random' departSpeed='10' />
<vehicle id='S_N_217' type='standard_car' route='S_N' depart='797' departLane='random' departSpeed='10' />
<vehicle id='N_S_218' type='standard_car' route='N_S' depart='797' departLane='random' departSpeed='10' />
<vehicle id='N_S_219' type='standard_car' route='N_S' depart='797' departLane='random' departSpeed='10' />
<vehicle id='S_N_220' type='standard_car' route='S_N' depart='802' departLane='random' departSpeed='10' />
<vehicle id='W_E_221' type='standard_car' route='W_E' depart='805' departLane='random' departSpeed='10' />
<vehicle id='N_S_222' type='standard_car' route='N_S' depart='808' departLane='random' departSpeed='10' />
<vehicle id='W_E_223' type='standard_car' route='W_E' depart='845' departLane='random' departSpeed='10' />
<vehicle id='N_S_224' type='standard_car' route='N_S' depart='845' departLane='random' departSpeed='10' />
<vehicle id='E_W_225' type='standard_car' route='E_W' depart='847' departLane='random' departSpeed='10' />
<vehicle id='E_W_226' type='standard_car' route='E_W' depart='850' departLane='random' departSpeed='10' />
<vehicle id='E_W_227' type='standard_car' route='E_W' depart='853' departLane='random' departSpeed='10' />
<vehicle id='N_S_228' type='standard_car' route='N_S' depart='856' departLane='random' departSpeed='10' />
<vehicle id='S_N_229' type='standard_car' route='S_N' depart='860' departLane='random' departSpeed='10' />
<vehicle id='S_W_230' type='standard_car' route='S_W' depart='860' departLane='random' departSpeed='10' />
<vehicle id='N_S_231' type='standard_car' route='N_S' depart='860' departLane='random' departSpeed='10' />
<vehicle id='E_W_232' type='standard_car' route='E_W' depart='860' departLane='random' departSpeed='10' />
<vehicle id='W_E_233' type='standard_car' route='W_E' depart='861' departLane='random' departSpeed='10' />
<vehicle id='E_W_234' type='standard_car' route='E_W' depart='861' departLane='random' departSpeed='10' />
<vehicle id='W_E_235' type='standard_car' route='W_E' depart='863' departLane='random' departSpeed='10' />
<vehicle id='E_W_236' type='standard_car' route='E_W' depart='864' departLane='random' departSpeed='10' />
<vehicle id='W_E_237' type='standard_car' route='W_E' depart='866' departLane='random' departSpeed='10' />
<vehicle id='E_W_238' type='standard_car' route='E_W' depart='869' departLane='random' departSpeed='10' />
<vehicle id='E_S_239' type='standard_car' route='E_S' depart='869' departLane='random' departSpeed='10' />
<vehicle id='E_W_240' type='standard_car' route='E_W' depart='870' departLane='random' departSpeed='10' />
<vehicle id='W_E_241' type='standard_car' route='W_E' depart='884' departLane='random' departSpeed='10' />
<vehicle id='E_W_242' type='standard_car' route='E_W' depart='888' departLane='random' departSpeed='10' />
<vehicle id='W_E_243' type='standard_car' route='W_E' depart='890' departLane='random' departSpeed='10' />
<vehicle id='W_N_244' type='standard_car' route='W_N' depart='890' departLane='random' departSpeed='10' />
<vehicle id='E_W_245' type='standard_car' route='E_W' depart='890' departLane='random' departSpeed='10' />
<vehicle id='E_S_246' type='standard_car' route='E_S' depart='890' departLane='random' departSpeed='10' />
<vehicle id='W_E_247' type='standard_car' route='W_E' depart='890' departLane='random' departSpeed='10' />
<vehicle id='W_E_248' type='standard_car' route='W_E' depart='892' departLane='random' departSpeed='10' />
<vehicle id='W_E_249' type='standard_car' route='W_E' depart='893' departLane='random' departSpeed='10' />
<vehicle id='W_E_250' type='standard_car' route='W_E' depart='895' departLane='random' departSpeed='10' />
<vehicle id='E_W_251' type='standard_car' route='E_W' depart='896' departLane='random' departSpeed='10' />
<vehicle id='E_W_252' type='standard_car' route='E_W' depart='898' departLane='random' departSpeed='10' />
<vehicle id='W_E_253' type='standard_car' route='W_E' depart='898' departLane='random' departSpeed='10' />
<vehicle id='W_E_254' type='standard_car' route='W_E' depart='899' departLane='random' departSpeed='10' />
<vehicle id='E_W_255' type='standard_car' route='E_W' depart='901' departLane='random' departSpeed='10' />
<vehicle id='E_W_256' type='standard_car' route='E_W' depart='905' departLane='random' departSpeed='10' />
<vehicle id='W_E_257' type='standard_car' route='W_E' depart='906' departLane='random' departSpeed='10' />
<vehicle id='W_N_258' type='standard_car' route='W_N' depart='906' departLane='random' departSpeed='10' />
<vehicle id='N_S_259' type='standard_car' route='N_S' depart='916' departLane='random' departSpeed='10' />
<vehicle id='E_W_260' type='standard_car' route='E_W' depart='918' departLane='random' departSpeed='10' />
<vehicle id='E_S_261' type='standard_car' route='E_S' depart='918' departLane='random' departSpeed='10' />
<vehicle id='E_W_262' type='standard_car' route='E_W' depart='918' departLane='random' departSpeed='10' />
<vehicle id='E_W_263' type='standard_car' route='E_W' depart='919' departLane='random' departSpeed='10' />
<vehicle id='N_S_264' type='standard_car' route='N_S' depart='931' departLane='random' departSpeed='10' />
<vehicle id='W_E_265' type='standard_car' route='W_E' depart='943' departLane='random' departSpeed='10' />
<vehicle id='S_N_266' type='standard_car' route='S_N' depart='945' departLane='random' departSpeed='10' />
<vehicle id='S_W_267' type='standard_car' route='S_W' depart='945' departLane='random' departSpeed='10' />
<vehicle id='W_E_268' type='standard_car' route='W_E' depart='970' departLane='random' departSpeed='10' />
<vehicle id='N_S_269' type='standard_car' route='N_S' depart='972' departLane='random' departSpeed='10' />
<vehicle id='N_S_270' type='standard_car' route='N_S' depart='982' departLane='random' departSpeed='10' />
<vehicle id='N_S_271' type='standard_car' route='N_S' depart='983' departLane='random' departSpeed='10' />
<vehicle id='W_E_272' type='standard_car' route='W_E' depart='983' departLane='random' departSpeed='10' />
<vehicle id='S_N_273' type='standard_car' route='S_N' depart='987' departLane='random' departSpeed='10' />
<vehicle id='N_S_274' type='standard_car' route='N_S' depart='987' departLane='random' departSpeed='10' />