<?xml version="1.0" encoding="UTF-8"?>

<!-- generated on 2022-02-26 11:19:42 by Eclipse SUMO netedit Version 1.10.0
<configuration xmlns:xsi="http://www.w3.org/2001/XMLSchema-instance" xsi:noNamespaceSchemaLocation="http://sumo.dlr.de/xsd/netconvertConfiguration.xsd">

    <input>
        <sumo-net-file value="E:\PycharmProject\TrafficControl202201\sumoNet\net.net.xml"/>
    </input>

    <output>
        <output-file value="E:\PycharmProject\TrafficControl202201\sumoNet\net.net.xml"/>
    </output>

    <processing>
        <geometry.min-radius.fix.railways value="false"/>
        <geometry.max-grade.fix value="false"/>
        <offset.disable-normalization value="true"/>
        <lefthand value="false"/>
    </processing>

    <junctions>
        <no-turnarounds value="true"/>
        <junctions.corner-detail value="5"/>
        <junctions.limit-turn-speed value="5.5"/>
        <rectangular-lane-cut value="false"/>
    </junctions>

    <pedestrian>
        <walkingareas value="false"/>
    </pedestrian>

    <report>
        <aggregate-warnings value="5"/>
    </report>

</configuration>
-->

<net version="1.9" junctionCornerDetail="5" limitTurnSpeed="5.50" xmlns:xsi="http://www.w3.org/2001/XMLSchema-instance" xsi:noNamespaceSchemaLocation="http://sumo.dlr.de/xsd/net_file.xsd">

    <location netOffset="0.00,0.00" convBoundary="-100.00,-100.00,100.00,100.00" origBoundary="-10000000000.00,-10000000000.00,10000000000.00,10000000000.00" projParameter="!"/>

    <edge id=":gneJ0_0" function="internal">
        <lane id=":gneJ0_0_0" index="0" speed="6.43" length="8.87" width="3.00" shape="-7.50,13.00 -7.84,10.59 -8.88,8.88 -10.59,7.84 -13.00,7.50"/>
    </edge>
    <edge id=":gneJ0_1" function="internal">
        <lane id=":gneJ0_1_0" index="0" speed="13.89" length="26.00" width="3.00" shape="-7.50,13.00 -7.50,-13.00"/>
        <lane id=":gneJ0_1_1" index="1" speed="13.89" length="26.00" width="3.00" shape="-4.50,13.00 -4.50,-13.00"/>
        <lane id=":gneJ0_1_2" index="2" speed="13.89" length="26.00" width="3.00" shape="-1.50,13.00 -1.50,-13.00"/>
    </edge>
    <edge id=":gneJ0_4" function="internal">
        <lane id=":gneJ0_4_0" index="0" speed="10.12" length="7.56" width="3.00" shape="-1.50,13.00 -0.59,6.66 0.00,5.67"/>
    </edge>
    <edge id=":gneJ0_20" function="internal">
        <lane id=":gneJ0_20_0" index="0" speed="10.12" length="15.82" width="3.00" shape="0.00,5.67 2.13,2.13 6.66,-0.59 13.00,-1.50"/>
    </edge>
    <edge id=":gneJ0_5" function="internal">
        <lane id=":gneJ0_5_0" index="0" speed="6.43" length="8.87" width="3.00" shape="13.00,7.50 10.59,7.84 8.88,8.88 7.84,10.59 7.50,13.00"/>
    </edge>
    <edge id=":gneJ0_6" function="internal">
        <lane id=":gneJ0_6_0" index="0" speed="13.89" length="26.00" width="3.00" shape="13.00,7.50 -13.00,7.50"/>
        <lane id=":gneJ0_6_1" index="1" speed="13.89" length="26.00" width="3.00" shape="13.00,4.50 -13.00,4.50"/>
        <lane id=":gneJ0_6_2" index="2" speed="13.89" length="26.00" width="3.00" shape="13.00,1.50 -13.00,1.50"/>
    </edge>
    <edge id=":gneJ0_9" function="internal">
        <lane id=":gneJ0_9_0" index="0" speed="10.12" length="7.56" width="3.00" shape="13.00,1.50 6.66,0.59 5.67,-0.00"/>
    </edge>
    <edge id=":gneJ0_21" function="internal">
        <lane id=":gneJ0_21_0" index="0" speed="10.12" length="15.82" width="3.00" shape="5.67,-0.00 2.13,-2.13 -0.59,-6.66 -1.50,-13.00"/>
    </edge>
    <edge id=":gneJ0_10" function="internal">
        <lane id=":gneJ0_10_0" index="0" speed="6.43" length="8.87" width="3.00" shape="7.50,-13.00 7.84,-10.59 8.88,-8.88 10.59,-7.84 13.00,-7.50"/>
    </edge>
    <edge id=":gneJ0_11" function="internal">
        <lane id=":gneJ0_11_0" index="0" speed="13.89" length="26.00" width="3.00" shape="7.50,-13.00 7.50,13.00"/>
        <lane id=":gneJ0_11_1" index="1" speed="13.89" length="26.00" width="3.00" shape="4.50,-13.00 4.50,13.00"/>
        <lane id=":gneJ0_11_2" index="2" speed="13.89" length="26.00" width="3.00" shape="1.50,-13.00 1.50,13.00"/>
    </edge>
    <edge id=":gneJ0_14" function="internal">
        <lane id=":gneJ0_14_0" index="0" speed="10.12" length="7.56" width="3.00" shape="1.50,-13.00 0.59,-6.66 -0.00,-5.67"/>
    </edge>
    <edge id=":gneJ0_22" function="internal">
        <lane id=":gneJ0_22_0" index="0" speed="10.12" length="15.82" width="3.00" shape="-0.00,-5.67 -2.13,-2.13 -6.66,0.59 -13.00,1.50"/>
    </edge>
    <edge id=":gneJ0_15" function="internal">
        <lane id=":gneJ0_15_0" index="0" speed="6.43" length="8.87" width="3.00" shape="-13.00,-7.50 -10.59,-7.84 -8.88,-8.88 -7.84,-10.59 -7.50,-13.00"/>
    </edge>
    <edge id=":gneJ0_16" function="internal">
        <lane id=":gneJ0_16_0" index="0" speed="13.89" length="26.00" width="3.00" shape="-13.00,-7.50 13.00,-7.50"/>
        <lane id=":gneJ0_16_1" index="1" speed="13.89" length="26.00" width="3.00" shape="-13.00,-4.50 13.00,-4.50"/>
        <lane id=":gneJ0_16_2" index="2" speed="13.89" length="26.00" width="3.00" shape="-13.00,-1.50 13.00,-1.50"/>
    </edge>
    <edge id=":gneJ0_19" function="internal">
        <lane id=":gneJ0_19_0" index="0" speed="10.12" length="7.56" width="3.00" shape="-13.00,-1.50 -6.66,-0.59 -5.67,0.00"/>
    </edge>
    <edge id=":gneJ0_23" function="internal">
        <lane id=":gneJ0_23_0" index="0" speed="10.12" length="15.82" width="3.00" shape="-5.67,0.00 -2.13,2.13 0.59,6.66 1.50,13.00"/>
    </edge>

    <edge id="-gneE0" from="gneJ0" to="gneJ1" priority="-1" length="300.00">
        <lane id="-gneE0_0" index="0" speed="13.89" length="300.00" width="3.00" shape="13.00,-7.50 100.00,-7.50"/>
        <lane id="-gneE0_1" index="1" speed="13.89" length="300.00" width="3.00" shape="13.00,-4.50 100.00,-4.50"/>
        <lane id="-gneE0_2" index="2" speed="13.89" length="300.00" width="3.00" shape="13.00,-1.50 100.00,-1.50"/>
    </edge>
    <edge id="-gneE1" from="gneJ0" to="gneJ2" priority="-1" length="300.00">
        <lane id="-gneE1_0" index="0" speed="13.89" length="300.00" width="3.00" shape="7.50,13.00 7.50,100.00"/>
        <lane id="-gneE1_1" index="1" speed="13.89" length="300.00" width="3.00" shape="4.50,13.00 4.50,100.00"/>
        <lane id="-gneE1_2" index="2" speed="13.89" length="300.00" width="3.00" shape="1.50,13.00 1.50,100.00"/>
    </edge>
    <edge id="-gneE2" from="gneJ0" to="gneJ3" priority="-1" length="300.00">
        <lane id="-gneE2_0" index="0" speed="13.89" length="300.00" width="3.00" shape="-13.00,7.50 -100.00,7.50"/>
        <lane id="-gneE2_1" index="1" speed="13.89" length="300.00" width="3.00" shape="-13.00,4.50 -100.00,4.50"/>
        <lane id="-gneE2_2" index="2" speed="13.89" length="300.00" width="3.00" shape="-13.00,1.50 -100.00,1.50"/>
    </edge>
    <edge id="-gneE3" from="gneJ0" to="gneJ4" priority="-1" length="300.00">
        <lane id="-gneE3_0" index="0" speed="13.89" length="300.00" width="3.00" shape="-7.50,-13.00 -7.50,-100.00"/>
        <lane id="-gneE3_1" index="1" speed="13.89" length="300.00" width="3.00" shape="-4.50,-13.00 -4.50,-100.00"/>
        <lane id="-gneE3_2" index="2" speed="13.89" length="300.00" width="3.00" shape="-1.50,-13.00 -1.50,-100.00"/>
    </edge>
    <edge id="gneE0" from="gneJ1" to="gneJ0" priority="-1" length="300.00">
        <lane id="gneE0_0" index="0" speed="13.89" length="300.00" width="3.00" shape="100.00,7.50 13.00,7.50"/>
        <lane id="gneE0_1" index="1" speed="13.89" length="300.00" width="3.00" shape="100.00,4.50 13.00,4.50"/>
        <lane id="gneE0_2" index="2" speed="13.89" length="300.00" width="3.00" shape="100.00,1.50 13.00,1.50"/>
    </edge>
    <edge id="gneE1" from="gneJ2" to="gneJ0" priority="-1" length="300.00">
        <lane id="gneE1_0" index="0" speed="13.89" length="300.00" width="3.00" shape="-7.50,100.00 -7.50,13.00"/>
        <lane id="gneE1_1" index="1" speed="13.89" length="300.00" width="3.00" shape="-4.50,100.00 -4.50,13.00"/>
        <lane id="gneE1_2" index="2" speed="13.89" length="300.00" width="3.00" shape="-1.50,100.00 -1.50,13.00"/>
    </edge>
    <edge id="gneE2" from="gneJ3" to="gneJ0" priority="-1" length="300.00">
        <lane id="gneE2_0" index="0" speed="13.89" length="300.00" width="3.00" shape="-100.00,-7.50 -13.00,-7.50"/>
        <lane id="gneE2_1" index="1" speed="13.89" length="300.00" width="3.00" shape="-100.00,-4.50 -13.00,-4.50"/>
        <lane id="gneE2_2" index="2" speed="13.89" length="300.00" width="3.00" shape="-100.00,-1.50 -13.00,-1.50"/>
    </edge>
    <edge id="gneE3" from="gneJ4" to="gneJ0" priority="-1" length="300.00">
        <lane id="gneE3_0" index="0" speed="13.89" length="300.00" width="3.00" shape="7.50,-100.00 7.50,-13.00"/>
        <lane id="gneE3_1" index="1" speed="13.89" length="300.00" width="3.00" shape="4.50,-100.00 4.50,-13.00"/>
        <lane id="gneE3_2" index="2" speed="13.89" length="300.00" width="3.00" shape="1.50,-100.00 1.50,-13.00"/>
    </edge>

    <tlLogic id="gneJ0" type="static" programID="0" offset="0">
        <phase duration="42" state="GGGGgrrrrrGGGGgrrrrr"/>
        <phase duration="3"  state="yyyyyrrrrryyyyyrrrrr"/>
        <phase duration="42" state="rrrrrGGGGgrrrrrGGGGg"/>
        <phase duration="3"  state="rrrrryyyyyrrrrryyyyy"/>
    </tlLogic>

    <junction id="gneJ0" type="traffic_light" x="0.00" y="0.00" incLanes="gneE1_0 gneE1_1 gneE1_2 gneE0_0 gneE0_1 gneE0_2 gneE3_0 gneE3_1 gneE3_2 gneE2_0 gneE2_1 gneE2_2" intLanes=":gneJ0_0_0 :gneJ0_1_0 :gneJ0_1_1 :gneJ0_1_2 :gneJ0_20_0 :gneJ0_5_0 :gneJ0_6_0 :gneJ0_6_1 :gneJ0_6_2 :gneJ0_21_0 :gneJ0_10_0 :gneJ0_11_0 :gneJ0_11_1 :gneJ0_11_2 :gneJ0_22_0 :gneJ0_15_0 :gneJ0_16_0 :gneJ0_16_1 :gneJ0_16_2 :gneJ0_23_0" shape="-9.00,13.00 9.00,13.00 9.44,10.78 10.00,10.00 10.78,9.44 11.78,9.11 13.00,9.00 13.00,-9.00 10.78,-9.44 10.00,-10.00 9.44,-10.78 9.11,-11.78 9.00,-13.00 -9.00,-13.00 -9.44,-10.78 -10.00,-10.00 -10.78,-9.44 -11.78,-9.11 -13.00,-9.00 -13.00,9.00 -10.78,9.44 -10.00,10.00 -9.44,10.78 -9.11,11.78" rightOfWay="edgePriority">
        <request index="0"  response="00000000000111000000" foes="00000000000111000000" cont="0"/>
        <request index="1"  response="11110000001000000000" foes="11111100001111000000" cont="0"/>
        <request index="2"  response="11110000001000000000" foes="11111100001111000000" cont="0"/>
        <request index="3"  response="11110000001000000000" foes="11111100001111000000" cont="0"/>
        <request index="4"  response="11110011101111000000" foes="11110011101111000000" cont="1"/>
        <request index="5"  response="00000011100000000000" foes="00000011100000000000" cont="0"/>
        <request index="6"  response="00000100000000011110" foes="10000111100000011111" cont="0"/>
        <request index="7"  response="00000100000000011110" foes="10000111100000011111" cont="0"/>
        <request index="8"  response="00000100000000011110" foes="10000111100000011111" cont="0"/>
        <request index="9"  response="01110111100000011110" foes="01110111100000011110" cont="1"/>
        <request index="10" response="01110000000000000000" foes="01110000000000000000" cont="0"/>
        <request index="11" response="10000000001111000000" foes="11110000001111110000" cont="0"/>
        <request index="12" response="10000000001111000000" foes="11110000001111110000" cont="0"/>
        <request index="13" response="10000000001111000000" foes="11110000001111110000" cont="0"/>
        <request index="14" response="11110000001111001110" foes="11110000001111001110" cont="1"/>
        <request index="15" response="00000000000000001110" foes="00000000000000001110" cont="0"/>
        <request index="16" response="00000111100000010000" foes="00000111111000011110" cont="0"/>
        <request index="17" response="00000111100000010000" foes="00000111111000011110" cont="0"/>
        <request index="18" response="00000111100000010000" foes="00000111111000011110" cont="0"/>
        <request index="19" response="00000111100111011110" foes="00000111100111011110" cont="1"/>
    </junction>
    <junction id="gneJ1" type="dead_end" x="100.00" y="0.00" incLanes="-gneE0_0 -gneE0_1 -gneE0_2" intLanes="" shape="100.00,0.00 100.00,-9.00 100.00,0.00"/>
    <junction id="gneJ2" type="dead_end" x="0.00" y="100.00" incLanes="-gneE1_0 -gneE1_1 -gneE1_2" intLanes="" shape="0.00,100.00 9.00,100.00 0.00,100.00"/>
    <junction id="gneJ3" type="dead_end" x="-100.00" y="0.00" incLanes="-gneE2_0 -gneE2_1 -gneE2_2" intLanes="" shape="-100.00,0.00 -100.00,9.00 -100.00,0.00"/>
    <junction id="gneJ4" type="dead_end" x="0.00" y="-100.00" incLanes="-gneE3_0 -gneE3_1 -gneE3_2" intLanes="" shape="0.00,-100.00 -9.00,-100.00 0.00,-100.00"/>

    <junction id=":gneJ0_20_0" type="internal" x="0.00" y="5.67" incLanes=":gneJ0_4_0 gneE3_0 gneE3_1 gneE3_2" intLanes=":gneJ0_6_0 :gneJ0_6_1 :gneJ0_6_2 :gneJ0_9_0 :gneJ0_10_0 :gneJ0_11_0 :gneJ0_11_1 :gneJ0_11_2 :gneJ0_16_0 :gneJ0_16_1 :gneJ0_16_2 :gneJ0_19_0"/>
    <junction id=":gneJ0_21_0" type="internal" x="5.67" y="-0.00" incLanes=":gneJ0_9_0 gneE2_0 gneE2_1 gneE2_2" intLanes=":gneJ0_1_0 :gneJ0_1_1 :gneJ0_1_2 :gneJ0_4_0 :gneJ0_11_0 :gneJ0_11_1 :gneJ0_11_2 :gneJ0_14_0 :gneJ0_15_0 :gneJ0_16_0 :gneJ0_16_1 :gneJ0_16_2"/>
    <junction id=":gneJ0_22_0" type="internal" x="-0.00" y="-5.67" incLanes=":gneJ0_14_0 gneE1_0 gneE1_1 gneE1_2" intLanes=":gneJ0_0_0 :gneJ0_1_0 :gneJ0_1_1 :gneJ0_1_2 :gneJ0_6_0 :gneJ0_6_1 :gneJ0_6_2 :gneJ0_9_0 :gneJ0_16_0 :gneJ0_16_1 :gneJ0_16_2 :gneJ0_19_0"/>
    <junction id=":gneJ0_23_0" type="internal" x="-5.67" y="0.00" incLanes=":gneJ0_19_0 gneE0_0 gneE0_1 gneE0_2" intLanes=":gneJ0_1_0 :gneJ0_1_1 :gneJ0_1_2 :gneJ0_4_0 :gneJ0_5_0 :gneJ0_6_0 :gneJ0_6_1 :gneJ0_6_2 :gneJ0_11_0 :gneJ0_11_1 :gneJ0_11_2 :gneJ0_14_0"/>

    <connection from="gneE0" to="-gneE1" fromLane="0" toLane="0" via=":gneJ0_5_0" tl="gneJ0" linkIndex="5" dir="r" state="o"/>
    <connection from="gneE0" to="-gneE2" fromLane="0" toLane="0" via=":gneJ0_6_0" tl="gneJ0" linkIndex="6" dir="s" state="o"/>
    <connection from="gneE0" to="-gneE2" fromLane="1" toLane="1" via=":gneJ0_6_1" tl="gneJ0" linkIndex="7" dir="s" state="o"/>
    <connection from="gneE0" to="-gneE2" fromLane="2" toLane="2" via=":gneJ0_6_2" tl="gneJ0" linkIndex="8" dir="s" state="o"/>
    <connection from="gneE0" to="-gneE3" fromLane="2" toLane="2" via=":gneJ0_9_0" tl="gneJ0" linkIndex="9" dir="l" state="o"/>
    <connection from="gneE1" to="-gneE2" fromLane="0" toLane="0" via=":gneJ0_0_0" tl="gneJ0" linkIndex="0" dir="r" state="o"/>
    <connection from="gneE1" to="-gneE3" fromLane="0" toLane="0" via=":gneJ0_1_0" tl="gneJ0" linkIndex="1" dir="s" state="o"/>
    <connection from="gneE1" to="-gneE3" fromLane="1" toLane="1" via=":gneJ0_1_1" tl="gneJ0" linkIndex="2" dir="s" state="o"/>
    <connection from="gneE1" to="-gneE3" fromLane="2" toLane="2" via=":gneJ0_1_2" tl="gneJ0" linkIndex="3" dir="s" state="o"/>
    <connection from="gneE1" to="-gneE0" fromLane="2" toLane="2" via=":gneJ0_4_0" tl="gneJ0" linkIndex="4" dir="l" state="o"/>
    <connection from="gneE2" to="-gneE3" fromLane="0" toLane="0" via=":gneJ0_15_0" tl="gneJ0" linkIndex="15" dir="r" state="o"/>
    <connection from="gneE2" to="-gneE0" fromLane="0" toLane="0" via=":gneJ0_16_0" tl="gneJ0" linkIndex="16" dir="s" state="o"/>
    <connection from="gneE2" to="-gneE0" fromLane="1" toLane="1" via=":gneJ0_16_1" tl="gneJ0" linkIndex="17" dir="s" state="o"/>
    <connection from="gneE2" to="-gneE0" fromLane="2" toLane="2" via=":gneJ0_16_2" tl="gneJ0" linkIndex="18" dir="s" state="o"/>
    <connection from="gneE2" to="-gneE1" fromLane="2" toLane="2" via=":gneJ0_19_0" tl="gneJ0" linkIndex="19" dir="l" state="o"/>
    <connection from="gneE3" to="-gneE0" fromLane="0" toLane="0" via=":gneJ0_10_0" tl="gneJ0" linkIndex="10" dir="r" state="o"/>
    <connection from="gneE3" to="-gneE1" fromLane="0" toLane="0" via=":gneJ0_11_0" tl="gneJ0" linkIndex="11" dir="s" state="o"/>
    <connection from="gneE3" to="-gneE1" fromLane="1" toLane="1" via=":gneJ0_11_1" tl="gneJ0" linkIndex="12" dir="s" state="o"/>
    <connection from="gneE3" to="-gneE1" fromLane="2" toLane="2" via=":gneJ0_11_2" tl="gneJ0" linkIndex="13" dir="s" state="o"/>
    <connection from="gneE3" to="-gneE2" fromLane="2" toLane="2" via=":gneJ0_14_0" tl="gneJ0" linkIndex="14" dir="l" state="o"/>

    <connection from=":gneJ0_0" to="-gneE2" fromLane="0" toLane="0" dir="r" state="M"/>
    <connection from=":gneJ0_1" to="-gneE3" fromLane="0" toLane="0" dir="s" state="M"/>
    <connection from=":gneJ0_1" to="-gneE3" fromLane="1" toLane="1" dir="s" state="M"/>
    <connection from=":gneJ0_1" to="-gneE3" fromLane="2" toLane="2" dir="s" state="M"/>
    <connection from=":gneJ0_4" to="-gneE0" fromLane="0" toLane="2" via=":gneJ0_20_0" dir="l" state="m"/>
    <connection from=":gneJ0_20" to="-gneE0" fromLane="0" toLane="2" dir="l" state="M"/>
    <connection from=":gneJ0_5" to="-gneE1" fromLane="0" toLane="0" dir="r" state="M"/>
    <connection from=":gneJ0_6" to="-gneE2" fromLane="0" toLane="0" dir="s" state="M"/>
    <connection from=":gneJ0_6" to="-gneE2" fromLane="1" toLane="1" dir="s" state="M"/>
    <connection from=":gneJ0_6" to="-gneE2" fromLane="2" toLane="2" dir="s" state="M"/>
    <connection from=":gneJ0_9" to="-gneE3" fromLane="0" toLane="2" via=":gneJ0_21_0" dir="l" state="m"/>
    <connection from=":gneJ0_21" to="-gneE3" fromLane="0" toLane="2" dir="l" state="M"/>
    <connection from=":gneJ0_10" to="-gneE0" fromLane="0" toLane="0" dir="r" state="M"/>
    <connection from=":gneJ0_11" to="-gneE1" fromLane="0" toLane="0" dir="s" state="M"/>
    <connection from=":gneJ0_11" to="-gneE1" fromLane="1" toLane="1" dir="s" state="M"/>
    <connection from=":gneJ0_11" to="-gneE1" fromLane="2" toLane="2" dir="s" state="M"/>
    <connection from=":gneJ0_14" to="-gneE2" fromLane="0" toLane="2" via=":gneJ0_22_0" dir="l" state="m"/>
    <connection from=":gneJ0_22" to="-gneE2" fromLane="0" toLane="2" dir="l" state="M"/>
    <connection from=":gneJ0_15" to="-gneE3" fromLane="0" toLane="0" dir="r" state="M"/>
    <connection from=":gneJ0_16" to="-gneE0" fromLane="0" toLane="0" dir="s" state="M"/>
    <connection from=":gneJ0_16" to="-gneE0" fromLane="1" toLane="1" dir="s" state="M"/>
    <connection from=":gneJ0_16" to="-gneE0" fromLane="2" toLane="2" dir="s" state="M"/>
    <connection from=":gneJ0_19" to="-gneE1" fromLane="0" toLane="2" via=":gneJ0_23_0" dir="l" state="m"/>
    <connection from=":gneJ0_23" to="-gneE1" fromLane="0" toLane="2" dir="l" state="M"/>

</net>
