<?xml version="1.0" encoding="UTF-8"?>

<!-- generated on 2022-04-16 13:53:32 by Eclipse SUMO netedit Version 1.10.0
<configuration xmlns:xsi="http://www.w3.org/2001/XMLSchema-instance" xsi:noNamespaceSchemaLocation="http://sumo.dlr.de/xsd/netconvertConfiguration.xsd">

    <input>
        <sumo-net-file value="F:\PyCharmProjection\TrafficControl202201\sumoNet\reality_network\net.net.xml"/>
    </input>

    <output>
        <output-file value="F:\PyCharmProjection\TrafficControl202201\sumoNet\reality_network\net.net.xml"/>
    </output>

    <processing>
        <geometry.min-radius.fix.railways value="false"/>
        <geometry.max-grade.fix value="false"/>
        <offset.disable-normalization value="true"/>
        <lefthand value="false"/>
    </processing>

    <junctions>
        <no-turnarounds value="true"/>
        <junctions.corner-detail value="5"/>
        <junctions.limit-turn-speed value="5.5"/>
        <rectangular-lane-cut value="false"/>
    </junctions>

    <pedestrian>
        <walkingareas value="false"/>
    </pedestrian>

    <report>
        <aggregate-warnings value="5"/>
    </report>

</configuration>
-->

<net version="1.9" junctionCornerDetail="5" limitTurnSpeed="5.50" xmlns:xsi="http://www.w3.org/2001/XMLSchema-instance" xsi:noNamespaceSchemaLocation="http://sumo.dlr.de/xsd/net_file.xsd">

    <location netOffset="0.00,0.00" convBoundary="-300.00,-300.00,300.00,300.00" origBoundary="-10000000000.00,-10000000000.00,10000000000.00,10000000000.00" projParameter="!"/>

    <edge id=":intersection_1_1_0" function="internal">
        <lane id=":intersection_1_1_0_0" index="0" speed="6.43" length="8.87" width="3.00" shape="-7.50,13.00 -7.84,10.59 -8.88,8.88 -10.59,7.84 -13.00,7.50"/>
    </edge>
    <edge id=":intersection_1_1_1" function="internal">
        <lane id=":intersection_1_1_1_0" index="0" speed="13.89" length="26.11" width="3.00" shape="-4.50,13.00 -4.50,-13.00"/>
        <lane id=":intersection_1_1_1_1" index="1" speed="13.89" length="26.11" width="3.00" shape="-4.50,13.00 -4.03,5.26 -3.00,-0.00 -1.97,-5.26 -1.50,-13.00"/>
    </edge>
    <edge id=":intersection_1_1_3" function="internal">
        <lane id=":intersection_1_1_3_0" index="0" speed="10.62" length="11.48" width="3.00" shape="-1.50,13.00 -0.59,5.34 1.09,1.97"/>
        <lane id=":intersection_1_1_3_1" index="1" speed="10.12" length="8.60" width="3.00" shape="-1.50,13.00 -0.59,6.66 0.53,4.78"/>
    </edge>
    <edge id=":intersection_1_1_20" function="internal">
        <lane id=":intersection_1_1_20_0" index="0" speed="10.62" length="14.37" width="3.00" shape="1.09,1.97 2.13,-0.12 6.66,-3.41 13.00,-4.50"/>
    </edge>
    <edge id=":intersection_1_1_21" function="internal">
        <lane id=":intersection_1_1_21_0" index="0" speed="10.12" length="14.78" width="3.00" shape="0.53,4.78 2.13,2.13 6.66,-0.59 13.00,-1.50"/>
    </edge>
    <edge id=":intersection_1_1_5" function="internal">
        <lane id=":intersection_1_1_5_0" index="0" speed="6.43" length="8.87" width="3.00" shape="13.00,7.50 10.59,7.84 8.88,8.88 7.84,10.59 7.50,13.00"/>
    </edge>
    <edge id=":intersection_1_1_6" function="internal">
        <lane id=":intersection_1_1_6_0" index="0" speed="13.89" length="26.11" width="3.00" shape="13.00,4.50 -13.00,4.50"/>
        <lane id=":intersection_1_1_6_1" index="1" speed="13.89" length="26.11" width="3.00" shape="13.00,4.50 5.26,4.03 -0.00,3.00 -5.26,1.97 -13.00,1.50"/>
    </edge>
    <edge id=":intersection_1_1_8" function="internal">
        <lane id=":intersection_1_1_8_0" index="0" speed="10.62" length="11.48" width="3.00" shape="13.00,1.50 5.34,0.59 1.97,-1.09"/>
        <lane id=":intersection_1_1_8_1" index="1" speed="10.12" length="8.60" width="3.00" shape="13.00,1.50 6.66,0.59 4.78,-0.53"/>
    </edge>
    <edge id=":intersection_1_1_22" function="internal">
        <lane id=":intersection_1_1_22_0" index="0" speed="10.62" length="14.37" width="3.00" shape="1.97,-1.09 -0.12,-2.13 -3.41,-6.66 -4.50,-13.00"/>
    </edge>
    <edge id=":intersection_1_1_23" function="internal">
        <lane id=":intersection_1_1_23_0" index="0" speed="10.12" length="14.78" width="3.00" shape="4.78,-0.53 2.13,-2.13 -0.59,-6.66 -1.50,-13.00"/>
    </edge>
    <edge id=":intersection_1_1_10" function="internal">
        <lane id=":intersection_1_1_10_0" index="0" speed="6.43" length="8.87" width="3.00" shape="7.50,-13.00 7.84,-10.59 8.88,-8.88 10.59,-7.84 13.00,-7.50"/>
    </edge>
    <edge id=":intersection_1_1_11" function="internal">
        <lane id=":intersection_1_1_11_0" index="0" speed="13.89" length="26.11" width="3.00" shape="4.50,-13.00 4.50,13.00"/>
        <lane id=":intersection_1_1_11_1" index="1" speed="13.89" length="26.11" width="3.00" shape="4.50,-13.00 4.03,-5.26 3.00,0.00 1.97,5.26 1.50,13.00"/>
    </edge>
    <edge id=":intersection_1_1_13" function="internal">
        <lane id=":intersection_1_1_13_0" index="0" speed="10.62" length="11.48" width="3.00" shape="1.50,-13.00 0.59,-5.34 -1.09,-1.97"/>
        <lane id=":intersection_1_1_13_1" index="1" speed="10.12" length="8.60" width="3.00" shape="1.50,-13.00 0.59,-6.66 -0.53,-4.78"/>
    </edge>
    <edge id=":intersection_1_1_24" function="internal">
        <lane id=":intersection_1_1_24_0" index="0" speed="10.62" length="14.37" width="3.00" shape="-1.09,-1.97 -2.13,0.12 -6.66,3.41 -13.00,4.50"/>
    </edge>
    <edge id=":intersection_1_1_25" function="internal">
        <lane id=":intersection_1_1_25_0" index="0" speed="10.12" length="14.78" width="3.00" shape="-0.53,-4.78 -2.13,-2.13 -6.66,0.59 -13.00,1.50"/>
    </edge>
    <edge id=":intersection_1_1_15" function="internal">
        <lane id=":intersection_1_1_15_0" index="0" speed="6.43" length="8.87" width="3.00" shape="-13.00,-7.50 -10.59,-7.84 -8.88,-8.88 -7.84,-10.59 -7.50,-13.00"/>
    </edge>
    <edge id=":intersection_1_1_16" function="internal">
        <lane id=":intersection_1_1_16_0" index="0" speed="13.89" length="26.11" width="3.00" shape="-13.00,-4.50 13.00,-4.50"/>
        <lane id=":intersection_1_1_16_1" index="1" speed="13.89" length="26.11" width="3.00" shape="-13.00,-4.50 -5.26,-4.03 0.00,-3.00 5.26,-1.97 13.00,-1.50"/>
    </edge>
    <edge id=":intersection_1_1_18" function="internal">
        <lane id=":intersection_1_1_18_0" index="0" speed="10.62" length="11.48" width="3.00" shape="-13.00,-1.50 -5.34,-0.59 -1.97,1.09"/>
        <lane id=":intersection_1_1_18_1" index="1" speed="10.12" length="8.60" width="3.00" shape="-13.00,-1.50 -6.66,-0.59 -4.78,0.53"/>
    </edge>
    <edge id=":intersection_1_1_26" function="internal">
        <lane id=":intersection_1_1_26_0" index="0" speed="10.62" length="14.37" width="3.00" shape="-1.97,1.09 0.12,2.13 3.41,6.66 4.50,13.00"/>
    </edge>
    <edge id=":intersection_1_1_27" function="internal">
        <lane id=":intersection_1_1_27_0" index="0" speed="10.12" length="14.78" width="3.00" shape="-4.78,0.53 -2.13,2.13 0.59,6.66 1.50,13.00"/>
    </edge>

    <edge id="road_0_1_0" from="intersection_0_1" to="intersection_1_1" priority="-1" length="300.00">
        <lane id="road_0_1_0_0" index="0" speed="13.89" length="300.00" width="3.00" shape="-300.00,-7.50 -13.00,-7.50"/>
        <lane id="road_0_1_0_1" index="1" speed="13.89" length="300.00" width="3.00" shape="-300.00,-4.50 -13.00,-4.50"/>
        <lane id="road_0_1_0_2" index="2" speed="13.89" length="300.00" width="3.00" shape="-300.00,-1.50 -13.00,-1.50"/>
    </edge>
    <edge id="road_1_0_1" from="intersection_1_0" to="intersection_1_1" priority="-1" length="300.00">
        <lane id="road_1_0_1_0" index="0" speed="13.89" length="300.00" width="3.00" shape="7.50,-300.00 7.50,-13.00"/>
        <lane id="road_1_0_1_1" index="1" speed="13.89" length="300.00" width="3.00" shape="4.50,-300.00 4.50,-13.00"/>
        <lane id="road_1_0_1_2" index="2" speed="13.89" length="300.00" width="3.00" shape="1.50,-300.00 1.50,-13.00"/>
    </edge>
    <edge id="road_1_1_0" from="intersection_1_1" to="intersection_2_1" priority="-1" length="300.00">
        <lane id="road_1_1_0_0" index="0" speed="13.89" length="300.00" width="3.00" shape="13.00,-7.50 300.00,-7.50"/>
        <lane id="road_1_1_0_1" index="1" speed="13.89" length="300.00" width="3.00" shape="13.00,-4.50 300.00,-4.50"/>
        <lane id="road_1_1_0_2" index="2" speed="13.89" length="300.00" width="3.00" shape="13.00,-1.50 300.00,-1.50"/>
    </edge>
    <edge id="road_1_1_1" from="intersection_1_1" to="intersection_1_2" priority="-1" length="300.00">
        <lane id="road_1_1_1_0" index="0" speed="13.89" length="300.00" width="3.00" shape="7.50,13.00 7.50,300.00"/>
        <lane id="road_1_1_1_1" index="1" speed="13.89" length="300.00" width="3.00" shape="4.50,13.00 4.50,300.00"/>
        <lane id="road_1_1_1_2" index="2" speed="13.89" length="300.00" width="3.00" shape="1.50,13.00 1.50,300.00"/>
    </edge>
    <edge id="road_1_1_2" from="intersection_1_1" to="intersection_0_1" priority="-1" length="300.00">
        <lane id="road_1_1_2_0" index="0" speed="13.89" length="300.00" width="3.00" shape="-13.00,7.50 -300.00,7.50"/>
        <lane id="road_1_1_2_1" index="1" speed="13.89" length="300.00" width="3.00" shape="-13.00,4.50 -300.00,4.50"/>
        <lane id="road_1_1_2_2" index="2" speed="13.89" length="300.00" width="3.00" shape="-13.00,1.50 -300.00,1.50"/>
    </edge>
    <edge id="road_1_1_3" from="intersection_1_1" to="intersection_1_0" priority="-1" length="300.00">
        <lane id="road_1_1_3_0" index="0" speed="13.89" length="300.00" width="3.00" shape="-7.50,-13.00 -7.50,-300.00"/>
        <lane id="road_1_1_3_1" index="1" speed="13.89" length="300.00" width="3.00" shape="-4.50,-13.00 -4.50,-300.00"/>
        <lane id="road_1_1_3_2" index="2" speed="13.89" length="300.00" width="3.00" shape="-1.50,-13.00 -1.50,-300.00"/>
    </edge>
    <edge id="road_1_2_3" from="intersection_1_2" to="intersection_1_1" priority="-1" length="300.00">
        <lane id="road_1_2_3_0" index="0" speed="13.89" length="300.00" width="3.00" shape="-7.50,300.00 -7.50,13.00"/>
        <lane id="road_1_2_3_1" index="1" speed="13.89" length="300.00" width="3.00" shape="-4.50,300.00 -4.50,13.00"/>
        <lane id="road_1_2_3_2" index="2" speed="13.89" length="300.00" width="3.00" shape="-1.50,300.00 -1.50,13.00"/>
    </edge>
    <edge id="road_2_1_2" from="intersection_2_1" to="intersection_1_1" priority="-1" length="300.00">
        <lane id="road_2_1_2_0" index="0" speed="13.89" length="300.00" width="3.00" shape="300.00,7.50 13.00,7.50"/>
        <lane id="road_2_1_2_1" index="1" speed="13.89" length="300.00" width="3.00" shape="300.00,4.50 13.00,4.50"/>
        <lane id="road_2_1_2_2" index="2" speed="13.89" length="300.00" width="3.00" shape="300.00,1.50 13.00,1.50"/>
    </edge>

    <tlLogic id="gneJ0" type="static" programID="0" offset="0">
        <phase duration="5" state="rrrrrrrrrrrrrrrrrrrr"/>
        <phase duration="30" state="GrrrrGrrGGGrrrrGrrGG"/>
        <phase duration="3" state= "GrrrrGrryyGrrrrGrryy"/>
        <phase duration="30" state="GrrGGGrrrrGrrGGGrrrr"/>
        <phase duration="3" state= "GrryyGrrrrGrryyGrrrr"/>
        <phase duration="30" state="GrrrrGGGrrGrrrrGGGrr"/>
        <phase duration="3" state= "GrrrrGyyrrGrrrrGyyrr"/>
        <phase duration="30" state="GGGrrGrrrrGGGrrGrrrr"/>
        <phase duration="3" state= "GyyrrGrrrrGyyrrGrrrr"/>
        <phase duration="30" state="GrrrrGrrrrGrrrrGGGGG"/>
        <phase duration="3" state= "GrrrrGrrrrGrrrrGyyyy"/>
        <phase duration="30" state="GrrrrGGGGGGrrrrGrrrr"/>
        <phase duration="3" state= "GrrrrGyyyyGrrrrGrrrr"/>
        <phase duration="30" state="GrrrrGrrrrGGGGGGrrrr"/>
        <phase duration="3" state= "GrrrrGrrrrGyyyyGrrrr"/>
        <phase duration="30" state="GGGGGGrrrrGrrrrGrrrr"/>
        <phase duration="3" state= "GyyyyGrrrrGrrrrGrrrr"/>
    </tlLogic>

    <junction id="intersection_0_1" type="dead_end" x="-300.00" y="0.00" incLanes="road_1_1_2_0 road_1_1_2_1 road_1_1_2_2" intLanes="" shape="-300.00,0.00 -300.00,9.00 -300.00,0.00"/>
    <junction id="intersection_1_0" type="dead_end" x="0.00" y="-300.00" incLanes="road_1_1_3_0 road_1_1_3_1 road_1_1_3_2" intLanes="" shape="0.00,-300.00 -9.00,-300.00 0.00,-300.00"/>
    <junction id="intersection_1_1" type="traffic_light" x="0.00" y="0.00" incLanes="road_1_2_3_0 road_1_2_3_1 road_1_2_3_2 road_2_1_2_0 road_2_1_2_1 road_2_1_2_2 road_1_0_1_0 road_1_0_1_1 road_1_0_1_2 road_0_1_0_0 road_0_1_0_1 road_0_1_0_2" intLanes=":intersection_1_1_0_0 :intersection_1_1_1_0 :intersection_1_1_1_1 :intersection_1_1_20_0 :intersection_1_1_21_0 :intersection_1_1_5_0 :intersection_1_1_6_0 :intersection_1_1_6_1 :intersection_1_1_22_0 :intersection_1_1_23_0 :intersection_1_1_10_0 :intersection_1_1_11_0 :intersection_1_1_11_1 :intersection_1_1_24_0 :intersection_1_1_25_0 :intersection_1_1_15_0 :intersection_1_1_16_0 :intersection_1_1_16_1 :intersection_1_1_26_0 :intersection_1_1_27_0" shape="-9.00,13.00 9.00,13.00 9.44,10.78 10.00,10.00 10.78,9.44 11.78,9.11 13.00,9.00 13.00,-9.00 10.78,-9.44 10.00,-10.00 9.44,-10.78 9.11,-11.78 9.00,-13.00 -9.00,-13.00 -9.44,-10.78 -10.00,-10.00 -10.78,-9.44 -11.78,-9.11 -13.00,-9.00 -13.00,9.00 -10.78,9.44 -10.00,10.00 -9.44,10.78 -9.11,11.78" rightOfWay="edgePriority">
        <request index="0"  response="00000000000000000000" foes="00000000000000000000" cont="0"/>
        <request index="1"  response="11110000001100000000" foes="11110110001111000000" cont="0"/>
        <request index="2"  response="11110000001100000000" foes="11110110001111000000" cont="0"/>
        <request index="3"  response="11110001101111000000" foes="11110001101111000000" cont="1"/>
        <request index="4"  response="11110001101111000000" foes="11110001101111000000" cont="1"/>
        <request index="5"  response="00000000000000000000" foes="00000000000000000000" cont="0"/>
        <request index="6"  response="00000110000000011110" foes="11000111100000011110" cont="0"/>
        <request index="7"  response="00000110000000011110" foes="11000111100000011110" cont="0"/>
        <request index="8"  response="00110111100000011110" foes="00110111100000011110" cont="1"/>
        <request index="9"  response="00110111100000011110" foes="00110111100000011110" cont="1"/>
        <request index="10" response="00000000000000000000" foes="00000000000000000000" cont="0"/>
        <request index="11" response="11000000001111000000" foes="11110000001111011000" cont="0"/>
        <request index="12" response="11000000001111000000" foes="11110000001111011000" cont="0"/>
        <request index="13" response="11110000001111000110" foes="11110000001111000110" cont="1"/>
        <request index="14" response="11110000001111000110" foes="11110000001111000110" cont="1"/>
        <request index="15" response="00000000000000000000" foes="00000000000000000000" cont="0"/>
        <request index="16" response="00000111100000011000" foes="00000111101100011110" cont="0"/>
        <request index="17" response="00000111100000011000" foes="00000111101100011110" cont="0"/>
        <request index="18" response="00000111100011011110" foes="00000111100011011110" cont="1"/>
        <request index="19" response="00000111100011011110" foes="00000111100011011110" cont="1"/>
    </junction>
    <junction id="intersection_1_2" type="dead_end" x="0.00" y="300.00" incLanes="road_1_1_1_0 road_1_1_1_1 road_1_1_1_2" intLanes="" shape="0.00,300.00 9.00,300.00 0.00,300.00"/>
    <junction id="intersection_2_1" type="dead_end" x="300.00" y="0.00" incLanes="road_1_1_0_0 road_1_1_0_1 road_1_1_0_2" intLanes="" shape="300.00,0.00 300.00,-9.00 300.00,0.00"/>

    <junction id=":intersection_1_1_20_0" type="internal" x="1.09" y="1.97" incLanes=":intersection_1_1_3_0 road_1_0_1_0 road_1_0_1_1" intLanes=":intersection_1_1_6_0 :intersection_1_1_6_1 :intersection_1_1_8_0 :intersection_1_1_8_1 :intersection_1_1_10_0 :intersection_1_1_11_0 :intersection_1_1_11_1 :intersection_1_1_16_0 :intersection_1_1_16_1 :intersection_1_1_18_0 :intersection_1_1_18_1"/>
    <junction id=":intersection_1_1_21_0" type="internal" x="0.53" y="4.78" incLanes=":intersection_1_1_3_1 road_1_0_1_0 road_1_0_1_1" intLanes=":intersection_1_1_6_0 :intersection_1_1_6_1 :intersection_1_1_8_0 :intersection_1_1_8_1 :intersection_1_1_10_0 :intersection_1_1_11_0 :intersection_1_1_11_1 :intersection_1_1_16_0 :intersection_1_1_16_1 :intersection_1_1_18_0 :intersection_1_1_18_1"/>
    <junction id=":intersection_1_1_22_0" type="internal" x="1.97" y="-1.09" incLanes=":intersection_1_1_8_0 road_0_1_0_0 road_0_1_0_1" intLanes=":intersection_1_1_1_0 :intersection_1_1_1_1 :intersection_1_1_3_0 :intersection_1_1_3_1 :intersection_1_1_11_0 :intersection_1_1_11_1 :intersection_1_1_13_0 :intersection_1_1_13_1 :intersection_1_1_15_0 :intersection_1_1_16_0 :intersection_1_1_16_1"/>
    <junction id=":intersection_1_1_23_0" type="internal" x="4.78" y="-0.53" incLanes=":intersection_1_1_8_1 road_0_1_0_0 road_0_1_0_1" intLanes=":intersection_1_1_1_0 :intersection_1_1_1_1 :intersection_1_1_3_0 :intersection_1_1_3_1 :intersection_1_1_11_0 :intersection_1_1_11_1 :intersection_1_1_13_0 :intersection_1_1_13_1 :intersection_1_1_15_0 :intersection_1_1_16_0 :intersection_1_1_16_1"/>
    <junction id=":intersection_1_1_24_0" type="internal" x="-1.09" y="-1.97" incLanes=":intersection_1_1_13_0 road_1_2_3_0 road_1_2_3_1" intLanes=":intersection_1_1_0_0 :intersection_1_1_1_0 :intersection_1_1_1_1 :intersection_1_1_6_0 :intersection_1_1_6_1 :intersection_1_1_8_0 :intersection_1_1_8_1 :intersection_1_1_16_0 :intersection_1_1_16_1 :intersection_1_1_18_0 :intersection_1_1_18_1"/>
    <junction id=":intersection_1_1_25_0" type="internal" x="-0.53" y="-4.78" incLanes=":intersection_1_1_13_1 road_1_2_3_0 road_1_2_3_1" intLanes=":intersection_1_1_0_0 :intersection_1_1_1_0 :intersection_1_1_1_1 :intersection_1_1_6_0 :intersection_1_1_6_1 :intersection_1_1_8_0 :intersection_1_1_8_1 :intersection_1_1_16_0 :intersection_1_1_16_1 :intersection_1_1_18_0 :intersection_1_1_18_1"/>
    <junction id=":intersection_1_1_26_0" type="internal" x="-1.97" y="1.09" incLanes=":intersection_1_1_18_0 road_2_1_2_0 road_2_1_2_1" intLanes=":intersection_1_1_1_0 :intersection_1_1_1_1 :intersection_1_1_3_0 :intersection_1_1_3_1 :intersection_1_1_5_0 :intersection_1_1_6_0 :intersection_1_1_6_1 :intersection_1_1_11_0 :intersection_1_1_11_1 :intersection_1_1_13_0 :intersection_1_1_13_1"/>
    <junction id=":intersection_1_1_27_0" type="internal" x="-4.78" y="0.53" incLanes=":intersection_1_1_18_1 road_2_1_2_0 road_2_1_2_1" intLanes=":intersection_1_1_1_0 :intersection_1_1_1_1 :intersection_1_1_3_0 :intersection_1_1_3_1 :intersection_1_1_5_0 :intersection_1_1_6_0 :intersection_1_1_6_1 :intersection_1_1_11_0 :intersection_1_1_11_1 :intersection_1_1_13_0 :intersection_1_1_13_1"/>

    <connection from="road_0_1_0" to="road_1_1_3" fromLane="0" toLane="0" via=":intersection_1_1_15_0" tl="gneJ0" linkIndex="15" dir="r" state="O"/>
    <connection from="road_0_1_0" to="road_1_1_0" fromLane="1" toLane="1" via=":intersection_1_1_16_0" tl="gneJ0" linkIndex="16" dir="s" state="o"/>
    <connection from="road_0_1_0" to="road_1_1_0" fromLane="1" toLane="2" via=":intersection_1_1_16_1" tl="gneJ0" linkIndex="17" dir="s" state="o"/>
    <connection from="road_0_1_0" to="road_1_1_1" fromLane="2" toLane="1" via=":intersection_1_1_18_0" tl="gneJ0" linkIndex="18" dir="l" state="o"/>
    <connection from="road_0_1_0" to="road_1_1_1" fromLane="2" toLane="2" via=":intersection_1_1_18_1" tl="gneJ0" linkIndex="19" dir="l" state="o"/>
    <connection from="road_1_0_1" to="road_1_1_0" fromLane="0" toLane="0" via=":intersection_1_1_10_0" tl="gneJ0" linkIndex="10" dir="r" state="O"/>
    <connection from="road_1_0_1" to="road_1_1_1" fromLane="1" toLane="1" via=":intersection_1_1_11_0" tl="gneJ0" linkIndex="11" dir="s" state="o"/>
    <connection from="road_1_0_1" to="road_1_1_1" fromLane="1" toLane="2" via=":intersection_1_1_11_1" tl="gneJ0" linkIndex="12" dir="s" state="o"/>
    <connection from="road_1_0_1" to="road_1_1_2" fromLane="2" toLane="1" via=":intersection_1_1_13_0" tl="gneJ0" linkIndex="13" dir="l" state="o"/>
    <connection from="road_1_0_1" to="road_1_1_2" fromLane="2" toLane="2" via=":intersection_1_1_13_1" tl="gneJ0" linkIndex="14" dir="l" state="o"/>
    <connection from="road_1_2_3" to="road_1_1_2" fromLane="0" toLane="0" via=":intersection_1_1_0_0" tl="gneJ0" linkIndex="0" dir="r" state="O"/>
    <connection from="road_1_2_3" to="road_1_1_3" fromLane="1" toLane="1" via=":intersection_1_1_1_0" tl="gneJ0" linkIndex="1" dir="s" state="o"/>
    <connection from="road_1_2_3" to="road_1_1_3" fromLane="1" toLane="2" via=":intersection_1_1_1_1" tl="gneJ0" linkIndex="2" dir="s" state="o"/>
    <connection from="road_1_2_3" to="road_1_1_0" fromLane="2" toLane="1" via=":intersection_1_1_3_0" tl="gneJ0" linkIndex="3" dir="l" state="o"/>
    <connection from="road_1_2_3" to="road_1_1_0" fromLane="2" toLane="2" via=":intersection_1_1_3_1" tl="gneJ0" linkIndex="4" dir="l" state="o"/>
    <connection from="road_2_1_2" to="road_1_1_1" fromLane="0" toLane="0" via=":intersection_1_1_5_0" tl="gneJ0" linkIndex="5" dir="r" state="O"/>
    <connection from="road_2_1_2" to="road_1_1_2" fromLane="1" toLane="1" via=":intersection_1_1_6_0" tl="gneJ0" linkIndex="6" dir="s" state="o"/>
    <connection from="road_2_1_2" to="road_1_1_2" fromLane="1" toLane="2" via=":intersection_1_1_6_1" tl="gneJ0" linkIndex="7" dir="s" state="o"/>
    <connection from="road_2_1_2" to="road_1_1_3" fromLane="2" toLane="1" via=":intersection_1_1_8_0" tl="gneJ0" linkIndex="8" dir="l" state="o"/>
    <connection from="road_2_1_2" to="road_1_1_3" fromLane="2" toLane="2" via=":intersection_1_1_8_1" tl="gneJ0" linkIndex="9" dir="l" state="o"/>

    <connection from=":intersection_1_1_0" to="road_1_1_2" fromLane="0" toLane="0" dir="r" state="M"/>
    <connection from=":intersection_1_1_1" to="road_1_1_3" fromLane="0" toLane="1" dir="s" state="M"/>
    <connection from=":intersection_1_1_1" to="road_1_1_3" fromLane="1" toLane="2" dir="s" state="M"/>
    <connection from=":intersection_1_1_3" to="road_1_1_0" fromLane="0" toLane="1" via=":intersection_1_1_20_0" dir="l" state="m"/>
    <connection from=":intersection_1_1_20" to="road_1_1_0" fromLane="0" toLane="1" dir="l" state="M"/>
    <connection from=":intersection_1_1_3" to="road_1_1_0" fromLane="1" toLane="2" via=":intersection_1_1_21_0" dir="l" state="m"/>
    <connection from=":intersection_1_1_21" to="road_1_1_0" fromLane="0" toLane="2" dir="l" state="M"/>
    <connection from=":intersection_1_1_5" to="road_1_1_1" fromLane="0" toLane="0" dir="r" state="M"/>
    <connection from=":intersection_1_1_6" to="road_1_1_2" fromLane="0" toLane="1" dir="s" state="M"/>
    <connection from=":intersection_1_1_6" to="road_1_1_2" fromLane="1" toLane="2" dir="s" state="M"/>
    <connection from=":intersection_1_1_8" to="road_1_1_3" fromLane="0" toLane="1" via=":intersection_1_1_22_0" dir="l" state="m"/>
    <connection from=":intersection_1_1_22" to="road_1_1_3" fromLane="0" toLane="1" dir="l" state="M"/>
    <connection from=":intersection_1_1_8" to="road_1_1_3" fromLane="1" toLane="2" via=":intersection_1_1_23_0" dir="l" state="m"/>
    <connection from=":intersection_1_1_23" to="road_1_1_3" fromLane="0" toLane="2" dir="l" state="M"/>
    <connection from=":intersection_1_1_10" to="road_1_1_0" fromLane="0" toLane="0" dir="r" state="M"/>
    <connection from=":intersection_1_1_11" to="road_1_1_1" fromLane="0" toLane="1" dir="s" state="M"/>
    <connection from=":intersection_1_1_11" to="road_1_1_1" fromLane="1" toLane="2" dir="s" state="M"/>
    <connection from=":intersection_1_1_13" to="road_1_1_2" fromLane="0" toLane="1" via=":intersection_1_1_24_0" dir="l" state="m"/>
    <connection from=":intersection_1_1_24" to="road_1_1_2" fromLane="0" toLane="1" dir="l" state="M"/>
    <connection from=":intersection_1_1_13" to="road_1_1_2" fromLane="1" toLane="2" via=":intersection_1_1_25_0" dir="l" state="m"/>
    <connection from=":intersection_1_1_25" to="road_1_1_2" fromLane="0" toLane="2" dir="l" state="M"/>
    <connection from=":intersection_1_1_15" to="road_1_1_3" fromLane="0" toLane="0" dir="r" state="M"/>
    <connection from=":intersection_1_1_16" to="road_1_1_0" fromLane="0" toLane="1" dir="s" state="M"/>
    <connection from=":intersection_1_1_16" to="road_1_1_0" fromLane="1" toLane="2" dir="s" state="M"/>
    <connection from=":intersection_1_1_18" to="road_1_1_1" fromLane="0" toLane="1" via=":intersection_1_1_26_0" dir="l" state="m"/>
    <connection from=":intersection_1_1_26" to="road_1_1_1" fromLane="0" toLane="1" dir="l" state="M"/>
    <connection from=":intersection_1_1_18" to="road_1_1_1" fromLane="1" toLane="2" via=":intersection_1_1_27_0" dir="l" state="m"/>
    <connection from=":intersection_1_1_27" to="road_1_1_1" fromLane="0" toLane="2" dir="l" state="M"/>

</net>
