<routes>
            <vType id="standard_car" length="3.0" maxSpeed="15" minGap="1.0" accel="1.0" decel="4.0" />
            <route id="N_S" edges="gneE5 gneE1 -gneE3 -gneE7"/>
            <route id="N_E" edges="gneE5 gneE1 -gneE0 -gneE4 "/>
            <route id="N_W" edges="gneE5 gneE1 -gneE2 -gneE6"/>
            <route id="S_W" edges="gneE7 gneE3 -gneE2 -gneE6"/>
            <route id="S_E" edges="gneE7 gneE3 -gneE0 -gneE4 "/>
            <route id="S_N" edges="gneE7 gneE3 -gneE1 -gneE5 "/>

            <route id="W_E" edges="gneE6 gneE2 -gneE0 -gneE4 "/>
            <route id="W_N" edges="gneE6 gneE2 -gneE1 -gneE5 "/>
            <route id="W_S" edges="gneE6 gneE2 -gneE3 -gneE7 "/>
            <route id="E_N" edges="gneE4 gneE0 -gneE1 -gneE5 "/>
            <route id="E_S" edges="gneE4 gneE0 -gneE3 -gneE7"/>
            <route id="E_W" edges="gneE4 gneE0 -gneE2 -gneE6 "/>
            
    <vehicle id='S_N_0' type='standard_car' route='S_N' depart='40.0' departLane='random' departSpeed='10' />
    <vehicle id='E_N_1' type='standard_car' route='E_N' depart='60.0' departLane='random' departSpeed='10' />
    <vehicle id='S_N_2' type='standard_car' route='S_N' depart='60.0' departLane='random' departSpeed='10' />
    <vehicle id='S_N_3' type='standard_car' route='S_N' depart='61.0' departLane='random' departSpeed='10' />
    <vehicle id='S_N_4' type='standard_car' route='S_N' depart='62.0' departLane='random' departSpeed='10' />
    <vehicle id='N_W_5' type='standard_car' route='N_W' depart='65.0' departLane='random' departSpeed='10' />
    <vehicle id='S_E_6' type='standard_car' route='S_E' depart='69.0' departLane='random' departSpeed='10' />
    <vehicle id='E_N_7' type='standard_car' route='E_N' depart='71.0' departLane='random' departSpeed='10' />
    <vehicle id='S_E_8' type='standard_car' route='S_E' depart='72.0' departLane='random' departSpeed='10' />
    <vehicle id='S_E_9' type='standard_car' route='S_E' depart='81.0' departLane='random' departSpeed='10' />
    <vehicle id='N_S_10' type='standard_car' route='N_S' depart='94.0' departLane='random' departSpeed='10' />
    <vehicle id='W_S_11' type='standard_car' route='W_S' depart='99.0' departLane='random' departSpeed='10' />
    <vehicle id='E_N_12' type='standard_car' route='E_N' depart='100.0' departLane='random' departSpeed='10' />
    <vehicle id='S_E_13' type='standard_car' route='S_E' depart='103.0' departLane='random' departSpeed='10' />
    <vehicle id='E_N_14' type='standard_car' route='E_N' depart='104.0' departLane='random' departSpeed='10' />
    <vehicle id='W_S_15' type='standard_car' route='W_S' depart='104.0' departLane='random' departSpeed='10' />
    <vehicle id='N_S_16' type='standard_car' route='N_S' depart='106.0' departLane='random' departSpeed='10' />
    <vehicle id='N_W_17' type='standard_car' route='N_W' depart='106.0' departLane='random' departSpeed='10' />
    <vehicle id='E_N_18' type='standard_car' route='E_N' depart='117.0' departLane='random' departSpeed='10' />
    <vehicle id='N_W_19' type='standard_car' route='N_W' depart='117.0' departLane='random' departSpeed='10' />
    <vehicle id='W_E_20' type='standard_car' route='W_E' depart='119.0' departLane='random' departSpeed='10' />
    <vehicle id='N_S_21' type='standard_car' route='N_S' depart='123.0' departLane='random' departSpeed='10' />
    <vehicle id='N_S_22' type='standard_car' route='N_S' depart='135.0' departLane='random' departSpeed='10' />
    <vehicle id='S_E_23' type='standard_car' route='S_E' depart='139.0' departLane='random' departSpeed='10' />
    <vehicle id='W_S_24' type='standard_car' route='W_S' depart='142.0' departLane='random' departSpeed='10' />
    <vehicle id='E_W_25' type='standard_car' route='E_W' depart='142.0' departLane='random' departSpeed='10' />
    <vehicle id='W_E_26' type='standard_car' route='W_E' depart='142.0' departLane='random' departSpeed='10' />
    <vehicle id='S_N_27' type='standard_car' route='S_N' depart='145.0' departLane='random' departSpeed='10' />
    <vehicle id='S_E_28' type='standard_car' route='S_E' depart='146.0' departLane='random' departSpeed='10' />
    <vehicle id='W_S_29' type='standard_car' route='W_S' depart='147.0' departLane='random' departSpeed='10' />
    <vehicle id='E_N_30' type='standard_car' route='E_N' depart='156.0' departLane='random' departSpeed='10' />
    <vehicle id='E_W_31' type='standard_car' route='E_W' depart='156.0' departLane='random' departSpeed='10' />
    <vehicle id='W_S_32' type='standard_car' route='W_S' depart='162.0' departLane='random' departSpeed='10' />
    <vehicle id='S_E_33' type='standard_car' route='S_E' depart='162.0' departLane='random' departSpeed='10' />
    <vehicle id='W_E_34' type='standard_car' route='W_E' depart='169.0' departLane='random' departSpeed='10' />
    <vehicle id='S_N_35' type='standard_car' route='S_N' depart='170.0' departLane='random' departSpeed='10' />
    <vehicle id='N_S_36' type='standard_car' route='N_S' depart='172.0' departLane='random' departSpeed='10' />
    <vehicle id='N_W_37' type='standard_car' route='N_W' depart='181.0' departLane='random' departSpeed='10' />
    <vehicle id='W_E_38' type='standard_car' route='W_E' depart='182.0' departLane='random' departSpeed='10' />
    <vehicle id='W_E_39' type='standard_car' route='W_E' depart='182.0' departLane='random' departSpeed='10' />
    <vehicle id='N_S_40' type='standard_car' route='N_S' depart='186.0' departLane='random' departSpeed='10' />
    <vehicle id='W_S_41' type='standard_car' route='W_S' depart='191.0' departLane='random' departSpeed='10' />
    <vehicle id='E_N_42' type='standard_car' route='E_N' depart='193.0' departLane='random' departSpeed='10' />
    <vehicle id='W_S_43' type='standard_car' route='W_S' depart='193.0' departLane='random' departSpeed='10' />
    <vehicle id='S_E_44' type='standard_car' route='S_E' depart='194.0' departLane='random' departSpeed='10' />
    <vehicle id='W_E_45' type='standard_car' route='W_E' depart='196.0' departLane='random' departSpeed='10' />
    <vehicle id='N_W_46' type='standard_car' route='N_W' depart='200.0' departLane='random' departSpeed='10' />
    <vehicle id='W_E_47' type='standard_car' route='W_E' depart='200.0' departLane='random' departSpeed='10' />
    <vehicle id='E_W_48' type='standard_car' route='E_W' depart='201.0' departLane='random' departSpeed='10' />
    <vehicle id='W_E_49' type='standard_car' route='W_E' depart='201.0' departLane='random' departSpeed='10' />
    <vehicle id='S_N_50' type='standard_car' route='S_N' depart='203.0' departLane='random' departSpeed='10' />
    <vehicle id='E_N_51' type='standard_car' route='E_N' depart='206.0' departLane='random' departSpeed='10' />
    <vehicle id='S_E_52' type='standard_car' route='S_E' depart='209.0' departLane='random' departSpeed='10' />
    <vehicle id='N_S_53' type='standard_car' route='N_S' depart='212.0' departLane='random' departSpeed='10' />
    <vehicle id='S_E_54' type='standard_car' route='S_E' depart='214.0' departLane='random' departSpeed='10' />
    <vehicle id='W_S_55' type='standard_car' route='W_S' depart='214.0' departLane='random' departSpeed='10' />
    <vehicle id='N_W_56' type='standard_car' route='N_W' depart='214.0' departLane='random' departSpeed='10' />
    <vehicle id='S_E_57' type='standard_car' route='S_E' depart='214.0' departLane='random' departSpeed='10' />
    <vehicle id='S_E_58' type='standard_car' route='S_E' depart='215.0' departLane='random' departSpeed='10' />
    <vehicle id='S_E_59' type='standard_car' route='S_E' depart='217.0' departLane='random' departSpeed='10' />
    <vehicle id='E_N_60' type='standard_car' route='E_N' depart='218.0' departLane='random' departSpeed='10' />
    <vehicle id='S_N_61' type='standard_car' route='S_N' depart='220.0' departLane='random' departSpeed='10' />
    <vehicle id='N_S_62' type='standard_car' route='N_S' depart='221.0' departLane='random' departSpeed='10' />
    <vehicle id='N_W_63' type='standard_car' route='N_W' depart='221.0' departLane='random' departSpeed='10' />
    <vehicle id='E_W_64' type='standard_car' route='E_W' depart='221.0' departLane='random' departSpeed='10' />
    <vehicle id='W_S_65' type='standard_car' route='W_S' depart='224.0' departLane='random' departSpeed='10' />
    <vehicle id='W_S_66' type='standard_car' route='W_S' depart='225.0' departLane='random' departSpeed='10' />
    <vehicle id='N_W_67' type='standard_car' route='N_W' depart='228.0' departLane='random' departSpeed='10' />
    <vehicle id='N_W_68' type='standard_car' route='N_W' depart='228.0' departLane='random' departSpeed='10' />
    <vehicle id='N_W_69' type='standard_car' route='N_W' depart='228.0' departLane='random' departSpeed='10' />
    <vehicle id='N_W_70' type='standard_car' route='N_W' depart='229.0' departLane='random' departSpeed='10' />
    <vehicle id='E_N_71' type='standard_car' route='E_N' depart='236.0' departLane='random' departSpeed='10' />
    <vehicle id='S_N_72' type='standard_car' route='S_N' depart='236.0' departLane='random' departSpeed='10' />
    <vehicle id='S_E_73' type='standard_car' route='S_E' depart='238.0' departLane='random' departSpeed='10' />
    <vehicle id='N_W_74' type='standard_car' route='N_W' depart='241.0' departLane='random' departSpeed='10' />
    <vehicle id='W_E_75' type='standard_car' route='W_E' depart='244.0' departLane='random' departSpeed='10' />
    <vehicle id='W_E_76' type='standard_car' route='W_E' depart='256.0' departLane='random' departSpeed='10' />
    <vehicle id='N_S_77' type='standard_car' route='N_S' depart='257.0' departLane='random' departSpeed='10' />
    <vehicle id='W_S_78' type='standard_car' route='W_S' depart='258.0' departLane='random' departSpeed='10' />
    <vehicle id='S_E_79' type='standard_car' route='S_E' depart='260.0' departLane='random' departSpeed='10' />
    <vehicle id='N_W_80' type='standard_car' route='N_W' depart='262.0' departLane='random' departSpeed='10' />
    <vehicle id='S_N_81' type='standard_car' route='S_N' depart='265.0' departLane='random' departSpeed='10' />
    <vehicle id='S_N_82' type='standard_car' route='S_N' depart='266.0' departLane='random' departSpeed='10' />
    <vehicle id='N_S_83' type='standard_car' route='N_S' depart='267.0' departLane='random' departSpeed='10' />
    <vehicle id='S_E_84' type='standard_car' route='S_E' depart='267.0' departLane='random' departSpeed='10' />
    <vehicle id='N_S_85' type='standard_car' route='N_S' depart='271.0' departLane='random' departSpeed='10' />
    <vehicle id='E_W_86' type='standard_car' route='E_W' depart='271.0' departLane='random' departSpeed='10' />
    <vehicle id='E_N_87' type='standard_car' route='E_N' depart='272.0' departLane='random' departSpeed='10' />
    <vehicle id='N_S_88' type='standard_car' route='N_S' depart='274.0' departLane='random' departSpeed='10' />
    <vehicle id='S_N_89' type='standard_car' route='S_N' depart='275.0' departLane='random' departSpeed='10' />
    <vehicle id='N_W_90' type='standard_car' route='N_W' depart='276.0' departLane='random' departSpeed='10' />
    <vehicle id='N_S_91' type='standard_car' route='N_S' depart='276.0' departLane='random' departSpeed='10' />
    <vehicle id='W_S_92' type='standard_car' route='W_S' depart='276.0' departLane='random' departSpeed='10' />
    <vehicle id='S_N_93' type='standard_car' route='S_N' depart='277.0' departLane='random' departSpeed='10' />
    <vehicle id='E_N_94' type='standard_car' route='E_N' depart='278.0' departLane='random' departSpeed='10' />
    <vehicle id='S_E_95' type='standard_car' route='S_E' depart='281.0' departLane='random' departSpeed='10' />
    <vehicle id='E_N_96' type='standard_car' route='E_N' depart='281.0' departLane='random' departSpeed='10' />
    <vehicle id='W_E_97' type='standard_car' route='W_E' depart='282.0' departLane='random' departSpeed='10' />
    <vehicle id='W_E_98' type='standard_car' route='W_E' depart='282.0' departLane='random' departSpeed='10' />
    <vehicle id='S_E_99' type='standard_car' route='S_E' depart='283.0' departLane='random' departSpeed='10' />
    <vehicle id='E_W_100' type='standard_car' route='E_W' depart='285.0' departLane='random' departSpeed='10' />
    <vehicle id='W_E_101' type='standard_car' route='W_E' depart='287.0' departLane='random' departSpeed='10' />
    <vehicle id='S_E_102' type='standard_car' route='S_E' depart='288.0' departLane='random' departSpeed='10' />
    <vehicle id='S_E_103' type='standard_car' route='S_E' depart='291.0' departLane='random' departSpeed='10' />
    <vehicle id='S_N_104' type='standard_car' route='S_N' depart='292.0' departLane='random' departSpeed='10' />
    <vehicle id='E_W_105' type='standard_car' route='E_W' depart='293.0' departLane='random' departSpeed='10' />
    <vehicle id='E_N_106' type='standard_car' route='E_N' depart='294.0' departLane='random' departSpeed='10' />
    <vehicle id='W_E_107' type='standard_car' route='W_E' depart='295.0' departLane='random' departSpeed='10' />
    <vehicle id='N_W_108' type='standard_car' route='N_W' depart='299.0' departLane='random' departSpeed='10' />
    <vehicle id='E_N_109' type='standard_car' route='E_N' depart='301.0' departLane='random' departSpeed='10' />
    <vehicle id='N_S_110' type='standard_car' route='N_S' depart='302.0' departLane='random' departSpeed='10' />
    <vehicle id='N_W_111' type='standard_car' route='N_W' depart='303.0' departLane='random' departSpeed='10' />
    <vehicle id='N_S_112' type='standard_car' route='N_S' depart='303.0' departLane='random' departSpeed='10' />
    <vehicle id='S_N_113' type='standard_car' route='S_N' depart='303.0' departLane='random' departSpeed='10' />
    <vehicle id='E_N_114' type='standard_car' route='E_N' depart='308.0' departLane='random' departSpeed='10' />
    <vehicle id='S_N_115' type='standard_car' route='S_N' depart='308.0' departLane='random' departSpeed='10' />
    <vehicle id='N_W_116' type='standard_car' route='N_W' depart='310.0' departLane='random' departSpeed='10' />
    <vehicle id='N_W_117' type='standard_car' route='N_W' depart='311.0' departLane='random' departSpeed='10' />
    <vehicle id='S_N_118' type='standard_car' route='S_N' depart='311.0' departLane='random' departSpeed='10' />
    <vehicle id='W_S_119' type='standard_car' route='W_S' depart='312.0' departLane='random' departSpeed='10' />
    <vehicle id='E_N_120' type='standard_car' route='E_N' depart='312.0' departLane='random' departSpeed='10' />
    <vehicle id='N_W_121' type='standard_car' route='N_W' depart='313.0' departLane='random' departSpeed='10' />
    <vehicle id='S_E_122' type='standard_car' route='S_E' depart='314.0' departLane='random' departSpeed='10' />
    <vehicle id='W_E_123' type='standard_car' route='W_E' depart='315.0' departLane='random' departSpeed='10' />
    <vehicle id='N_W_124' type='standard_car' route='N_W' depart='315.0' departLane='random' departSpeed='10' />
    <vehicle id='N_W_125' type='standard_car' route='N_W' depart='315.0' departLane='random' departSpeed='10' />
    <vehicle id='E_N_126' type='standard_car' route='E_N' depart='317.0' departLane='random' departSpeed='10' />
    <vehicle id='W_S_127' type='standard_car' route='W_S' depart='318.0' departLane='random' departSpeed='10' />
    <vehicle id='S_E_128' type='standard_car' route='S_E' depart='318.0' departLane='random' departSpeed='10' />
    <vehicle id='W_E_129' type='standard_car' route='W_E' depart='322.0' departLane='random' departSpeed='10' />
    <vehicle id='W_E_130' type='standard_car' route='W_E' depart='322.0' departLane='random' departSpeed='10' />
    <vehicle id='E_W_131' type='standard_car' route='E_W' depart='323.0' departLane='random' departSpeed='10' />
    <vehicle id='S_N_132' type='standard_car' route='S_N' depart='323.0' departLane='random' departSpeed='10' />
    <vehicle id='E_W_133' type='standard_car' route='E_W' depart='325.0' departLane='random' departSpeed='10' />
    <vehicle id='W_S_134' type='standard_car' route='W_S' depart='326.0' departLane='random' departSpeed='10' />
    <vehicle id='N_W_135' type='standard_car' route='N_W' depart='327.0' departLane='random' departSpeed='10' />
    <vehicle id='W_S_136' type='standard_car' route='W_S' depart='327.0' departLane='random' departSpeed='10' />
    <vehicle id='W_S_137' type='standard_car' route='W_S' depart='329.0' departLane='random' departSpeed='10' />
    <vehicle id='W_S_138' type='standard_car' route='W_S' depart='329.0' departLane='random' departSpeed='10' />
    <vehicle id='E_N_139' type='standard_car' route='E_N' depart='334.0' departLane='random' departSpeed='10' />
    <vehicle id='S_N_140' type='standard_car' route='S_N' depart='335.0' departLane='random' departSpeed='10' />
    <vehicle id='N_S_141' type='standard_car' route='N_S' depart='337.0' departLane='random' departSpeed='10' />
    <vehicle id='N_W_142' type='standard_car' route='N_W' depart='339.0' departLane='random' departSpeed='10' />
    <vehicle id='S_N_143' type='standard_car' route='S_N' depart='341.0' departLane='random' departSpeed='10' />
    <vehicle id='W_S_144' type='standard_car' route='W_S' depart='342.0' departLane='random' departSpeed='10' />
    <vehicle id='N_S_145' type='standard_car' route='N_S' depart='343.0' departLane='random' departSpeed='10' />
    <vehicle id='W_E_146' type='standard_car' route='W_E' depart='344.0' departLane='random' departSpeed='10' />
    <vehicle id='E_N_147' type='standard_car' route='E_N' depart='345.0' departLane='random' departSpeed='10' />
    <vehicle id='W_S_148' type='standard_car' route='W_S' depart='346.0' departLane='random' departSpeed='10' />
    <vehicle id='N_W_149' type='standard_car' route='N_W' depart='346.0' departLane='random' departSpeed='10' />
    <vehicle id='N_S_150' type='standard_car' route='N_S' depart='348.0' departLane='random' departSpeed='10' />
    <vehicle id='W_E_151' type='standard_car' route='W_E' depart='350.0' departLane='random' departSpeed='10' />
    <vehicle id='W_S_152' type='standard_car' route='W_S' depart='353.0' departLane='random' departSpeed='10' />
    <vehicle id='S_N_153' type='standard_car' route='S_N' depart='353.0' departLane='random' departSpeed='10' />
    <vehicle id='W_E_154' type='standard_car' route='W_E' depart='354.0' departLane='random' departSpeed='10' />
    <vehicle id='E_N_155' type='standard_car' route='E_N' depart='354.0' departLane='random' departSpeed='10' />
    <vehicle id='E_N_156' type='standard_car' route='E_N' depart='355.0' departLane='random' departSpeed='10' />
    <vehicle id='S_E_157' type='standard_car' route='S_E' depart='355.0' departLane='random' departSpeed='10' />
    <vehicle id='S_E_158' type='standard_car' route='S_E' depart='357.0' departLane='random' departSpeed='10' />
    <vehicle id='N_W_159' type='standard_car' route='N_W' depart='359.0' departLane='random' departSpeed='10' />
    <vehicle id='E_W_160' type='standard_car' route='E_W' depart='361.0' departLane='random' departSpeed='10' />
    <vehicle id='N_S_161' type='standard_car' route='N_S' depart='362.0' departLane='random' departSpeed='10' />
    <vehicle id='W_S_162' type='standard_car' route='W_S' depart='365.0' departLane='random' departSpeed='10' />
    <vehicle id='E_W_163' type='standard_car' route='E_W' depart='369.0' departLane='random' departSpeed='10' />
    <vehicle id='E_N_164' type='standard_car' route='E_N' depart='370.0' departLane='random' departSpeed='10' />
    <vehicle id='S_E_165' type='standard_car' route='S_E' depart='371.0' departLane='random' departSpeed='10' />
    <vehicle id='N_W_166' type='standard_car' route='N_W' depart='372.0' departLane='random' departSpeed='10' />
    <vehicle id='E_N_167' type='standard_car' route='E_N' depart='373.0' departLane='random' departSpeed='10' />
    <vehicle id='N_S_168' type='standard_car' route='N_S' depart='373.0' departLane='random' departSpeed='10' />
    <vehicle id='E_N_169' type='standard_car' route='E_N' depart='375.0' departLane='random' departSpeed='10' />
    <vehicle id='S_N_170' type='standard_car' route='S_N' depart='377.0' departLane='random' departSpeed='10' />
    <vehicle id='S_E_171' type='standard_car' route='S_E' depart='378.0' departLane='random' departSpeed='10' />
    <vehicle id='E_W_172' type='standard_car' route='E_W' depart='382.0' departLane='random' departSpeed='10' />
    <vehicle id='S_N_173' type='standard_car' route='S_N' depart='383.0' departLane='random' departSpeed='10' />
    <vehicle id='W_S_174' type='standard_car' route='W_S' depart='384.0' departLane='random' departSpeed='10' />
    <vehicle id='E_N_175' type='standard_car' route='E_N' depart='385.0' departLane='random' departSpeed='10' />
    <vehicle id='N_W_176' type='standard_car' route='N_W' depart='385.0' departLane='random' departSpeed='10' />
    <vehicle id='W_E_177' type='standard_car' route='W_E' depart='386.0' departLane='random' departSpeed='10' />
    <vehicle id='S_N_178' type='standard_car' route='S_N' depart='386.0' departLane='random' departSpeed='10' />
    <vehicle id='W_S_179' type='standard_car' route='W_S' depart='386.0' departLane='random' departSpeed='10' />
    <vehicle id='E_W_180' type='standard_car' route='E_W' depart='387.0' departLane='random' departSpeed='10' />
    <vehicle id='W_E_181' type='standard_car' route='W_E' depart='388.0' departLane='random' departSpeed='10' />
    <vehicle id='N_W_182' type='standard_car' route='N_W' depart='389.0' departLane='random' departSpeed='10' />
    <vehicle id='S_E_183' type='standard_car' route='S_E' depart='389.0' departLane='random' departSpeed='10' />
    <vehicle id='N_S_184' type='standard_car' route='N_S' depart='390.0' departLane='random' departSpeed='10' />
    <vehicle id='N_W_185' type='standard_car' route='N_W' depart='390.0' departLane='random' departSpeed='10' />
    <vehicle id='W_E_186' type='standard_car' route='W_E' depart='392.0' departLane='random' departSpeed='10' />
    <vehicle id='W_E_187' type='standard_car' route='W_E' depart='392.0' departLane='random' departSpeed='10' />
    <vehicle id='E_W_188' type='standard_car' route='E_W' depart='392.0' departLane='random' departSpeed='10' />
    <vehicle id='N_W_189' type='standard_car' route='N_W' depart='392.0' departLane='random' departSpeed='10' />
    <vehicle id='W_S_190' type='standard_car' route='W_S' depart='394.0' departLane='random' departSpeed='10' />
    <vehicle id='W_S_191' type='standard_car' route='W_S' depart='394.0' departLane='random' departSpeed='10' />
    <vehicle id='E_W_192' type='standard_car' route='E_W' depart='394.0' departLane='random' departSpeed='10' />
    <vehicle id='N_S_193' type='standard_car' route='N_S' depart='394.0' departLane='random' departSpeed='10' />
    <vehicle id='E_N_194' type='standard_car' route='E_N' depart='394.0' departLane='random' departSpeed='10' />
    <vehicle id='W_S_195' type='standard_car' route='W_S' depart='395.0' departLane='random' departSpeed='10' />
    <vehicle id='S_E_196' type='standard_car' route='S_E' depart='396.0' departLane='random' departSpeed='10' />
    <vehicle id='N_W_197' type='standard_car' route='N_W' depart='397.0' departLane='random' departSpeed='10' />
    <vehicle id='E_W_198' type='standard_car' route='E_W' depart='398.0' departLane='random' departSpeed='10' />
    <vehicle id='S_N_199' type='standard_car' route='S_N' depart='400.0' departLane='random' departSpeed='10' />
    <vehicle id='E_N_200' type='standard_car' route='E_N' depart='402.0' departLane='random' departSpeed='10' />
    <vehicle id='S_E_201' type='standard_car' route='S_E' depart='403.0' departLane='random' departSpeed='10' />
    <vehicle id='W_E_202' type='standard_car' route='W_E' depart='404.0' departLane='random' departSpeed='10' />
    <vehicle id='E_W_203' type='standard_car' route='E_W' depart='404.0' departLane='random' departSpeed='10' />
    <vehicle id='N_S_204' type='standard_car' route='N_S' depart='405.0' departLane='random' departSpeed='10' />
    <vehicle id='E_N_205' type='standard_car' route='E_N' depart='405.0' departLane='random' departSpeed='10' />
    <vehicle id='S_N_206' type='standard_car' route='S_N' depart='406.0' departLane='random' departSpeed='10' />
    <vehicle id='S_N_207' type='standard_car' route='S_N' depart='407.0' departLane='random' departSpeed='10' />
    <vehicle id='W_E_208' type='standard_car' route='W_E' depart='410.0' departLane='random' departSpeed='10' />
    <vehicle id='N_W_209' type='standard_car' route='N_W' depart='410.0' departLane='random' departSpeed='10' />
    <vehicle id='W_E_210' type='standard_car' route='W_E' depart='410.0' departLane='random' departSpeed='10' />
    <vehicle id='W_E_211' type='standard_car' route='W_E' depart='411.0' departLane='random' departSpeed='10' />
    <vehicle id='E_N_212' type='standard_car' route='E_N' depart='412.0' departLane='random' departSpeed='10' />
    <vehicle id='W_E_213' type='standard_car' route='W_E' depart='412.0' departLane='random' departSpeed='10' />
    <vehicle id='E_N_214' type='standard_car' route='E_N' depart='413.0' departLane='random' departSpeed='10' />
    <vehicle id='E_N_215' type='standard_car' route='E_N' depart='413.0' departLane='random' departSpeed='10' />
    <vehicle id='E_N_216' type='standard_car' route='E_N' depart='414.0' departLane='random' departSpeed='10' />
    <vehicle id='S_E_217' type='standard_car' route='S_E' depart='414.0' departLane='random' departSpeed='10' />
    <vehicle id='W_E_218' type='standard_car' route='W_E' depart='416.0' departLane='random' departSpeed='10' />
    <vehicle id='E_N_219' type='standard_car' route='E_N' depart='420.0' departLane='random' departSpeed='10' />
    <vehicle id='S_E_220' type='standard_car' route='S_E' depart='421.0' departLane='random' departSpeed='10' />
    <vehicle id='E_W_221' type='standard_car' route='E_W' depart='424.0' departLane='random' departSpeed='10' />
    <vehicle id='E_N_222' type='standard_car' route='E_N' depart='424.0' departLane='random' departSpeed='10' />
    <vehicle id='W_S_223' type='standard_car' route='W_S' depart='425.0' departLane='random' departSpeed='10' />
    <vehicle id='S_E_224' type='standard_car' route='S_E' depart='426.0' departLane='random' departSpeed='10' />
    <vehicle id='W_S_225' type='standard_car' route='W_S' depart='427.0' departLane='random' departSpeed='10' />
    <vehicle id='S_N_226' type='standard_car' route='S_N' depart='428.0' departLane='random' departSpeed='10' />
    <vehicle id='W_S_227' type='standard_car' route='W_S' depart='430.0' departLane='random' departSpeed='10' />
    <vehicle id='E_N_228' type='standard_car' route='E_N' depart='431.0' departLane='random' departSpeed='10' />
    <vehicle id='E_N_229' type='standard_car' route='E_N' depart='432.0' departLane='random' departSpeed='10' />
    <vehicle id='N_W_230' type='standard_car' route='N_W' depart='432.0' departLane='random' departSpeed='10' />
    <vehicle id='N_W_231' type='standard_car' route='N_W' depart='432.0' departLane='random' departSpeed='10' />
    <vehicle id='S_E_232' type='standard_car' route='S_E' depart='432.0' departLane='random' departSpeed='10' />
    <vehicle id='S_E_233' type='standard_car' route='S_E' depart='434.0' departLane='random' departSpeed='10' />
    <vehicle id='N_W_234' type='standard_car' route='N_W' depart='438.0' departLane='random' departSpeed='10' />
    <vehicle id='E_W_235' type='standard_car' route='E_W' depart='439.0' departLane='random' departSpeed='10' />
    <vehicle id='W_S_236' type='standard_car' route='W_S' depart='439.0' departLane='random' departSpeed='10' />
    <vehicle id='E_N_237' type='standard_car' route='E_N' depart='440.0' departLane='random' departSpeed='10' />
    <vehicle id='W_S_238' type='standard_car' route='W_S' depart='441.0' departLane='random' departSpeed='10' />
    <vehicle id='S_N_239' type='standard_car' route='S_N' depart='441.0' departLane='random' departSpeed='10' />
    <vehicle id='E_N_240' type='standard_car' route='E_N' depart='441.0' departLane='random' departSpeed='10' />
    <vehicle id='N_S_241' type='standard_car' route='N_S' depart='444.0' departLane='random' departSpeed='10' />
    <vehicle id='N_W_242' type='standard_car' route='N_W' depart='445.0' departLane='random' departSpeed='10' />
    <vehicle id='S_N_243' type='standard_car' route='S_N' depart='446.0' departLane='random' departSpeed='10' />
    <vehicle id='N_W_244' type='standard_car' route='N_W' depart='448.0' departLane='random' departSpeed='10' />
    <vehicle id='W_E_245' type='standard_car' route='W_E' depart='449.0' departLane='random' departSpeed='10' />
    <vehicle id='N_W_246' type='standard_car' route='N_W' depart='450.0' departLane='random' departSpeed='10' />
    <vehicle id='E_W_247' type='standard_car' route='E_W' depart='450.0' departLane='random' departSpeed='10' />
    <vehicle id='N_W_248' type='standard_car' route='N_W' depart='450.0' departLane='random' departSpeed='10' />
    <vehicle id='S_E_249' type='standard_car' route='S_E' depart='451.0' departLane='random' departSpeed='10' />
    <vehicle id='N_S_250' type='standard_car' route='N_S' depart='453.0' departLane='random' departSpeed='10' />
    <vehicle id='E_W_251' type='standard_car' route='E_W' depart='454.0' departLane='random' departSpeed='10' />
    <vehicle id='W_S_252' type='standard_car' route='W_S' depart='455.0' departLane='random' departSpeed='10' />
    <vehicle id='N_W_253' type='standard_car' route='N_W' depart='456.0' departLane='random' departSpeed='10' />
    <vehicle id='N_W_254' type='standard_car' route='N_W' depart='456.0' departLane='random' departSpeed='10' />
    <vehicle id='W_S_255' type='standard_car' route='W_S' depart='459.0' departLane='random' departSpeed='10' />
    <vehicle id='E_N_256' type='standard_car' route='E_N' depart='459.0' departLane='random' departSpeed='10' />
    <vehicle id='N_W_257' type='standard_car' route='N_W' depart='459.0' departLane='random' departSpeed='10' />