<routes>
            <vType id="standard_car" length="3.0" maxSpeed="15" minGap="1.0" accel="1.0" decel="4.0" />
            <route id="N_S" edges="gneE5 gneE1 -gneE3 -gneE7"/>
            <route id="N_E" edges="gneE5 gneE1 -gneE0 -gneE4"/>
            <route id="N_W" edges="gneE5 gneE1 -gneE2 -gneE6"/>
            <route id="S_W" edges="gneE7 gneE3 -gneE2 -gneE6"/>
            <route id="S_E" edges="gneE7 gneE3 -gneE0 -gneE4"/>
            <route id="S_N" edges="gneE7 gneE3 -gneE1 -gneE5"/>

            <route id="W_E" edges="gneE6 gneE2 -gneE0 -gneE4"/>
            <route id="W_N" edges="gneE6 gneE2 -gneE1 -gneE5"/>
            <route id="W_S" edges="gneE6 gneE2 -gneE3 -gneE7"/>
            <route id="E_N" edges="gneE4 gneE0 -gneE1 -gneE5"/>
            <route id="E_S" edges="gneE4 gneE0 -gneE3 -gneE7"/>
            <route id="E_W" edges="gneE4 gneE0 -gneE2 -gneE6"/>
            
    <vehicle id='N_S_0' type='standard_car' route='N_S' depart='1.0' departLane='random' departSpeed='10' />
    <vehicle id='N_W_1' type='standard_car' route='N_W' depart='19.0' departLane='random' departSpeed='10' />
    <vehicle id='S_N_2' type='standard_car' route='S_N' depart='23.0' departLane='random' departSpeed='10' />
    <vehicle id='W_S_3' type='standard_car' route='W_S' depart='28.0' departLane='random' departSpeed='10' />
    <vehicle id='E_W_4' type='standard_car' route='E_W' depart='28.0' departLane='random' departSpeed='10' />
    <vehicle id='S_N_5' type='standard_car' route='S_N' depart='41.0' departLane='random' departSpeed='10' />
    <vehicle id='S_E_6' type='standard_car' route='S_E' depart='44.0' departLane='random' departSpeed='10' />
    <vehicle id='E_W_7' type='standard_car' route='E_W' depart='49.0' departLane='random' departSpeed='10' />
    <vehicle id='S_E_8' type='standard_car' route='S_E' depart='53.0' departLane='random' departSpeed='10' />
    <vehicle id='S_N_9' type='standard_car' route='S_N' depart='53.0' departLane='random' departSpeed='10' />
    <vehicle id='S_N_10' type='standard_car' route='S_N' depart='62.0' departLane='random' departSpeed='10' />
    <vehicle id='E_W_11' type='standard_car' route='E_W' depart='62.0' departLane='random' departSpeed='10' />
    <vehicle id='E_W_12' type='standard_car' route='E_W' depart='65.0' departLane='random' departSpeed='10' />
    <vehicle id='N_S_13' type='standard_car' route='N_S' depart='65.0' departLane='random' departSpeed='10' />
    <vehicle id='W_S_14' type='standard_car' route='W_S' depart='69.0' departLane='random' departSpeed='10' />
    <vehicle id='E_N_15' type='standard_car' route='E_N' depart='101.0' departLane='random' departSpeed='10' />
    <vehicle id='S_E_16' type='standard_car' route='S_E' depart='102.0' departLane='random' departSpeed='10' />
    <vehicle id='E_W_17' type='standard_car' route='E_W' depart='104.0' departLane='random' departSpeed='10' />
    <vehicle id='W_E_18' type='standard_car' route='W_E' depart='105.0' departLane='random' departSpeed='10' />
    <vehicle id='S_E_19' type='standard_car' route='S_E' depart='106.0' departLane='random' departSpeed='10' />
    <vehicle id='W_S_20' type='standard_car' route='W_S' depart='109.0' departLane='random' departSpeed='10' />
    <vehicle id='N_W_21' type='standard_car' route='N_W' depart='111.0' departLane='random' departSpeed='10' />
    <vehicle id='W_S_22' type='standard_car' route='W_S' depart='129.0' departLane='random' departSpeed='10' />
    <vehicle id='S_E_23' type='standard_car' route='S_E' depart='141.0' departLane='random' departSpeed='10' />
    <vehicle id='E_N_24' type='standard_car' route='E_N' depart='141.0' departLane='random' departSpeed='10' />
    <vehicle id='E_N_25' type='standard_car' route='E_N' depart='143.0' departLane='random' departSpeed='10' />
    <vehicle id='E_W_26' type='standard_car' route='E_W' depart='146.0' departLane='random' departSpeed='10' />
    <vehicle id='S_N_27' type='standard_car' route='S_N' depart='147.0' departLane='random' departSpeed='10' />
    <vehicle id='E_W_28' type='standard_car' route='E_W' depart='153.0' departLane='random' departSpeed='10' />
    <vehicle id='N_W_29' type='standard_car' route='N_W' depart='153.0' departLane='random' departSpeed='10' />
    <vehicle id='W_S_30' type='standard_car' route='W_S' depart='154.0' departLane='random' departSpeed='10' />
    <vehicle id='E_W_31' type='standard_car' route='E_W' depart='154.0' departLane='random' departSpeed='10' />
    <vehicle id='N_W_32' type='standard_car' route='N_W' depart='165.0' departLane='random' departSpeed='10' />
    <vehicle id='W_S_33' type='standard_car' route='W_S' depart='169.0' departLane='random' departSpeed='10' />
    <vehicle id='W_S_34' type='standard_car' route='W_S' depart='170.0' departLane='random' departSpeed='10' />
    <vehicle id='S_E_35' type='standard_car' route='S_E' depart='175.0' departLane='random' departSpeed='10' />
    <vehicle id='N_W_36' type='standard_car' route='N_W' depart='178.0' departLane='random' departSpeed='10' />
    <vehicle id='E_N_37' type='standard_car' route='E_N' depart='178.0' departLane='random' departSpeed='10' />
    <vehicle id='E_N_38' type='standard_car' route='E_N' depart='178.0' departLane='random' departSpeed='10' />
    <vehicle id='N_S_39' type='standard_car' route='N_S' depart='178.0' departLane='random' departSpeed='10' />
    <vehicle id='S_E_40' type='standard_car' route='S_E' depart='183.0' departLane='random' departSpeed='10' />
    <vehicle id='N_S_41' type='standard_car' route='N_S' depart='185.0' departLane='random' departSpeed='10' />
    <vehicle id='W_S_42' type='standard_car' route='W_S' depart='196.0' departLane='random' departSpeed='10' />
    <vehicle id='W_E_43' type='standard_car' route='W_E' depart='196.0' departLane='random' departSpeed='10' />
    <vehicle id='W_E_44' type='standard_car' route='W_E' depart='196.0' departLane='random' departSpeed='10' />
    <vehicle id='S_E_45' type='standard_car' route='S_E' depart='198.0' departLane='random' departSpeed='10' />
    <vehicle id='S_N_46' type='standard_car' route='S_N' depart='200.0' departLane='random' departSpeed='10' />
    <vehicle id='N_S_47' type='standard_car' route='N_S' depart='200.0' departLane='random' departSpeed='10' />
    <vehicle id='N_S_48' type='standard_car' route='N_S' depart='200.0' departLane='random' departSpeed='10' />
    <vehicle id='E_N_49' type='standard_car' route='E_N' depart='204.0' departLane='random' departSpeed='10' />
    <vehicle id='N_W_50' type='standard_car' route='N_W' depart='211.0' departLane='random' departSpeed='10' />
    <vehicle id='S_E_51' type='standard_car' route='S_E' depart='216.0' departLane='random' departSpeed='10' />
    <vehicle id='W_S_52' type='standard_car' route='W_S' depart='220.0' departLane='random' departSpeed='10' />
    <vehicle id='N_W_53' type='standard_car' route='N_W' depart='241.0' departLane='random' departSpeed='10' />
    <vehicle id='S_N_54' type='standard_car' route='S_N' depart='244.0' departLane='random' departSpeed='10' />
    <vehicle id='N_S_55' type='standard_car' route='N_S' depart='259.0' departLane='random' departSpeed='10' />
    <vehicle id='N_W_56' type='standard_car' route='N_W' depart='264.0' departLane='random' departSpeed='10' />
    <vehicle id='N_W_57' type='standard_car' route='N_W' depart='268.0' departLane='random' departSpeed='10' />
    <vehicle id='E_N_58' type='standard_car' route='E_N' depart='277.0' departLane='random' departSpeed='10' />
    <vehicle id='S_E_59' type='standard_car' route='S_E' depart='278.0' departLane='random' departSpeed='10' />
    <vehicle id='S_E_60' type='standard_car' route='S_E' depart='279.0' departLane='random' departSpeed='10' />
    <vehicle id='S_E_61' type='standard_car' route='S_E' depart='280.0' departLane='random' departSpeed='10' />
    <vehicle id='W_E_62' type='standard_car' route='W_E' depart='280.0' departLane='random' departSpeed='10' />
    <vehicle id='E_N_63' type='standard_car' route='E_N' depart='280.0' departLane='random' departSpeed='10' />
    <vehicle id='N_S_64' type='standard_car' route='N_S' depart='292.0' departLane='random' departSpeed='10' />
    <vehicle id='N_W_65' type='standard_car' route='N_W' depart='292.0' departLane='random' departSpeed='10' />
    <vehicle id='N_S_66' type='standard_car' route='N_S' depart='308.0' departLane='random' departSpeed='10' />
    <vehicle id='S_E_67' type='standard_car' route='S_E' depart='308.0' departLane='random' departSpeed='10' />
    <vehicle id='N_S_68' type='standard_car' route='N_S' depart='310.0' departLane='random' departSpeed='10' />
    <vehicle id='S_N_69' type='standard_car' route='S_N' depart='310.0' departLane='random' departSpeed='10' />
    <vehicle id='E_N_70' type='standard_car' route='E_N' depart='311.0' departLane='random' departSpeed='10' />
    <vehicle id='W_S_71' type='standard_car' route='W_S' depart='320.0' departLane='random' departSpeed='10' />
    <vehicle id='E_N_72' type='standard_car' route='E_N' depart='333.0' departLane='random' departSpeed='10' />
    <vehicle id='N_S_73' type='standard_car' route='N_S' depart='337.0' departLane='random' departSpeed='10' />
    <vehicle id='W_E_74' type='standard_car' route='W_E' depart='356.0' departLane='random' departSpeed='10' />
    <vehicle id='N_S_75' type='standard_car' route='N_S' depart='356.0' departLane='random' departSpeed='10' />
    <vehicle id='E_N_76' type='standard_car' route='E_N' depart='367.0' departLane='random' departSpeed='10' />
    <vehicle id='N_W_77' type='standard_car' route='N_W' depart='375.0' departLane='random' departSpeed='10' />
    <vehicle id='W_E_78' type='standard_car' route='W_E' depart='377.0' departLane='random' departSpeed='10' />
    <vehicle id='N_W_79' type='standard_car' route='N_W' depart='381.0' departLane='random' departSpeed='10' />
    <vehicle id='S_E_80' type='standard_car' route='S_E' depart='396.0' departLane='random' departSpeed='10' />
    <vehicle id='N_S_81' type='standard_car' route='N_S' depart='396.0' departLane='random' departSpeed='10' />
    <vehicle id='S_N_82' type='standard_car' route='S_N' depart='398.0' departLane='random' departSpeed='10' />
    <vehicle id='S_E_83' type='standard_car' route='S_E' depart='399.0' departLane='random' departSpeed='10' />
    <vehicle id='N_W_84' type='standard_car' route='N_W' depart='399.0' departLane='random' departSpeed='10' />
    <vehicle id='E_N_85' type='standard_car' route='E_N' depart='409.0' departLane='random' departSpeed='10' />
    <vehicle id='E_N_86' type='standard_car' route='E_N' depart='420.0' departLane='random' departSpeed='10' />
    <vehicle id='E_N_87' type='standard_car' route='E_N' depart='423.0' departLane='random' departSpeed='10' />
    <vehicle id='S_N_88' type='standard_car' route='S_N' depart='423.0' departLane='random' departSpeed='10' />
    <vehicle id='E_W_89' type='standard_car' route='E_W' depart='423.0' departLane='random' departSpeed='10' />
    <vehicle id='E_N_90' type='standard_car' route='E_N' depart='436.0' departLane='random' departSpeed='10' />
    <vehicle id='N_S_91' type='standard_car' route='N_S' depart='449.0' departLane='random' departSpeed='10' />
    <vehicle id='N_W_92' type='standard_car' route='N_W' depart='457.0' departLane='random' departSpeed='10' />
    <vehicle id='W_E_93' type='standard_car' route='W_E' depart='462.0' departLane='random' departSpeed='10' />
    <vehicle id='E_N_94' type='standard_car' route='E_N' depart='468.0' departLane='random' departSpeed='10' />
    <vehicle id='E_N_95' type='standard_car' route='E_N' depart='473.0' departLane='random' departSpeed='10' />
    <vehicle id='E_W_96' type='standard_car' route='E_W' depart='476.0' departLane='random' departSpeed='10' />
    <vehicle id='E_N_97' type='standard_car' route='E_N' depart='487.0' departLane='random' departSpeed='10' />
    <vehicle id='E_N_98' type='standard_car' route='E_N' depart='489.0' departLane='random' departSpeed='10' />
    <vehicle id='N_S_99' type='standard_car' route='N_S' depart='492.0' departLane='random' departSpeed='10' />
    <vehicle id='N_S_100' type='standard_car' route='N_S' depart='492.0' departLane='random' departSpeed='10' />
    <vehicle id='E_W_101' type='standard_car' route='E_W' depart='492.0' departLane='random' departSpeed='10' />
    <vehicle id='W_S_102' type='standard_car' route='W_S' depart='509.0' departLane='random' departSpeed='10' />
    <vehicle id='W_S_103' type='standard_car' route='W_S' depart='509.0' departLane='random' departSpeed='10' />
    <vehicle id='E_W_104' type='standard_car' route='E_W' depart='510.0' departLane='random' departSpeed='10' />
    <vehicle id='N_W_105' type='standard_car' route='N_W' depart='510.0' departLane='random' departSpeed='10' />
    <vehicle id='S_E_106' type='standard_car' route='S_E' depart='511.0' departLane='random' departSpeed='10' />
    <vehicle id='W_S_107' type='standard_car' route='W_S' depart='511.0' departLane='random' departSpeed='10' />
    <vehicle id='E_W_108' type='standard_car' route='E_W' depart='520.0' departLane='random' departSpeed='10' />
    <vehicle id='E_W_109' type='standard_car' route='E_W' depart='520.0' departLane='random' departSpeed='10' />
    <vehicle id='E_W_110' type='standard_car' route='E_W' depart='528.0' departLane='random' departSpeed='10' />
    <vehicle id='N_S_111' type='standard_car' route='N_S' depart='528.0' departLane='random' departSpeed='10' />
    <vehicle id='S_E_112' type='standard_car' route='S_E' depart='529.0' departLane='random' departSpeed='10' />
    <vehicle id='S_N_113' type='standard_car' route='S_N' depart='529.0' departLane='random' departSpeed='10' />
    <vehicle id='N_W_114' type='standard_car' route='N_W' depart='531.0' departLane='random' departSpeed='10' />
    <vehicle id='W_S_115' type='standard_car' route='W_S' depart='545.0' departLane='random' departSpeed='10' />
    <vehicle id='N_W_116' type='standard_car' route='N_W' depart='549.0' departLane='random' departSpeed='10' />
    <vehicle id='S_E_117' type='standard_car' route='S_E' depart='565.0' departLane='random' departSpeed='10' />
    <vehicle id='E_W_118' type='standard_car' route='E_W' depart='569.0' departLane='random' departSpeed='10' />
    <vehicle id='S_E_119' type='standard_car' route='S_E' depart='569.0' departLane='random' departSpeed='10' />
    <vehicle id='W_S_120' type='standard_car' route='W_S' depart='570.0' departLane='random' departSpeed='10' />
    <vehicle id='S_N_121' type='standard_car' route='S_N' depart='570.0' departLane='random' departSpeed='10' />
    <vehicle id='S_N_122' type='standard_car' route='S_N' depart='577.0' departLane='random' departSpeed='10' />
    <vehicle id='E_N_123' type='standard_car' route='E_N' depart='580.0' departLane='random' departSpeed='10' />
    <vehicle id='N_W_124' type='standard_car' route='N_W' depart='584.0' departLane='random' departSpeed='10' />
    <vehicle id='W_E_125' type='standard_car' route='W_E' depart='586.0' departLane='random' departSpeed='10' />
    <vehicle id='N_S_126' type='standard_car' route='N_S' depart='586.0' departLane='random' departSpeed='10' />
    <vehicle id='E_W_127' type='standard_car' route='E_W' depart='589.0' departLane='random' departSpeed='10' />
    <vehicle id='N_S_128' type='standard_car' route='N_S' depart='593.0' departLane='random' departSpeed='10' />
    <vehicle id='S_E_129' type='standard_car' route='S_E' depart='595.0' departLane='random' departSpeed='10' />
    <vehicle id='W_S_130' type='standard_car' route='W_S' depart='595.0' departLane='random' departSpeed='10' />
    <vehicle id='E_N_131' type='standard_car' route='E_N' depart='595.0' departLane='random' departSpeed='10' />
    <vehicle id='E_N_132' type='standard_car' route='E_N' depart='596.0' departLane='random' departSpeed='10' />
    <vehicle id='E_W_133' type='standard_car' route='E_W' depart='612.0' departLane='random' departSpeed='10' />
    <vehicle id='S_E_134' type='standard_car' route='S_E' depart='618.0' departLane='random' departSpeed='10' />
    <vehicle id='N_S_135' type='standard_car' route='N_S' depart='619.0' departLane='random' departSpeed='10' />
    <vehicle id='S_N_136' type='standard_car' route='S_N' depart='619.0' departLane='random' departSpeed='10' />
    <vehicle id='S_N_137' type='standard_car' route='S_N' depart='619.0' departLane='random' departSpeed='10' />
    <vehicle id='N_W_138' type='standard_car' route='N_W' depart='620.0' departLane='random' departSpeed='10' />
    <vehicle id='N_W_139' type='standard_car' route='N_W' depart='620.0' departLane='random' departSpeed='10' />
    <vehicle id='W_S_140' type='standard_car' route='W_S' depart='624.0' departLane='random' departSpeed='10' />
    <vehicle id='S_N_141' type='standard_car' route='S_N' depart='629.0' departLane='random' departSpeed='10' />
    <vehicle id='N_S_142' type='standard_car' route='N_S' depart='629.0' departLane='random' departSpeed='10' />
    <vehicle id='N_S_143' type='standard_car' route='N_S' depart='631.0' departLane='random' departSpeed='10' />
    <vehicle id='N_W_144' type='standard_car' route='N_W' depart='638.0' departLane='random' departSpeed='10' />
    <vehicle id='W_S_145' type='standard_car' route='W_S' depart='641.0' departLane='random' departSpeed='10' />
    <vehicle id='E_N_146' type='standard_car' route='E_N' depart='647.0' departLane='random' departSpeed='10' />
    <vehicle id='E_W_147' type='standard_car' route='E_W' depart='647.0' departLane='random' departSpeed='10' />
    <vehicle id='N_W_148' type='standard_car' route='N_W' depart='654.0' departLane='random' departSpeed='10' />
    <vehicle id='N_W_149' type='standard_car' route='N_W' depart='656.0' departLane='random' departSpeed='10' />
    <vehicle id='S_E_150' type='standard_car' route='S_E' depart='658.0' departLane='random' departSpeed='10' />
    <vehicle id='S_E_151' type='standard_car' route='S_E' depart='673.0' departLane='random' departSpeed='10' />
    <vehicle id='N_S_152' type='standard_car' route='N_S' depart='681.0' departLane='random' departSpeed='10' />
    <vehicle id='N_S_153' type='standard_car' route='N_S' depart='681.0' departLane='random' departSpeed='10' />
    <vehicle id='W_S_154' type='standard_car' route='W_S' depart='686.0' departLane='random' departSpeed='10' />
    <vehicle id='S_E_155' type='standard_car' route='S_E' depart='687.0' departLane='random' departSpeed='10' />
    <vehicle id='N_S_156' type='standard_car' route='N_S' depart='693.0' departLane='random' departSpeed='10' />
    <vehicle id='N_S_157' type='standard_car' route='N_S' depart='693.0' departLane='random' departSpeed='10' />
    <vehicle id='S_N_158' type='standard_car' route='S_N' depart='695.0' departLane='random' departSpeed='10' />
    <vehicle id='S_E_159' type='standard_car' route='S_E' depart='695.0' departLane='random' departSpeed='10' />
    <vehicle id='E_W_160' type='standard_car' route='E_W' depart='695.0' departLane='random' departSpeed='10' />
    <vehicle id='W_S_161' type='standard_car' route='W_S' depart='699.0' departLane='random' departSpeed='10' />
    <vehicle id='W_S_162' type='standard_car' route='W_S' depart='699.0' departLane='random' departSpeed='10' />
    <vehicle id='N_W_163' type='standard_car' route='N_W' depart='699.0' departLane='random' departSpeed='10' />
    <vehicle id='W_E_164' type='standard_car' route='W_E' depart='701.0' departLane='random' departSpeed='10' />
    <vehicle id='S_E_165' type='standard_car' route='S_E' depart='709.0' departLane='random' departSpeed='10' />
    <vehicle id='S_N_166' type='standard_car' route='S_N' depart='709.0' departLane='random' departSpeed='10' />
    <vehicle id='N_W_167' type='standard_car' route='N_W' depart='713.0' departLane='random' departSpeed='10' />
    <vehicle id='W_E_168' type='standard_car' route='W_E' depart='720.0' departLane='random' departSpeed='10' />
    <vehicle id='W_E_169' type='standard_car' route='W_E' depart='720.0' departLane='random' departSpeed='10' />
    <vehicle id='S_E_170' type='standard_car' route='S_E' depart='722.0' departLane='random' departSpeed='10' />
    <vehicle id='S_N_171' type='standard_car' route='S_N' depart='726.0' departLane='random' departSpeed='10' />
    <vehicle id='N_W_172' type='standard_car' route='N_W' depart='726.0' departLane='random' departSpeed='10' />
    <vehicle id='N_W_173' type='standard_car' route='N_W' depart='726.0' departLane='random' departSpeed='10' />
    <vehicle id='E_W_174' type='standard_car' route='E_W' depart='729.0' departLane='random' departSpeed='10' />
    <vehicle id='S_N_175' type='standard_car' route='S_N' depart='729.0' departLane='random' departSpeed='10' />
    <vehicle id='E_W_176' type='standard_car' route='E_W' depart='731.0' departLane='random' departSpeed='10' />
    <vehicle id='S_E_177' type='standard_car' route='S_E' depart='738.0' departLane='random' departSpeed='10' />
    <vehicle id='W_S_178' type='standard_car' route='W_S' depart='739.0' departLane='random' departSpeed='10' />
    <vehicle id='W_E_179' type='standard_car' route='W_E' depart='742.0' departLane='random' departSpeed='10' />
    <vehicle id='W_S_180' type='standard_car' route='W_S' depart='755.0' departLane='random' departSpeed='10' />
    <vehicle id='W_E_181' type='standard_car' route='W_E' depart='758.0' departLane='random' departSpeed='10' />
    <vehicle id='W_E_182' type='standard_car' route='W_E' depart='766.0' departLane='random' departSpeed='10' />
    <vehicle id='S_E_183' type='standard_car' route='S_E' depart='766.0' departLane='random' departSpeed='10' />
    <vehicle id='E_W_184' type='standard_car' route='E_W' depart='766.0' departLane='random' departSpeed='10' />
    <vehicle id='S_E_185' type='standard_car' route='S_E' depart='773.0' departLane='random' departSpeed='10' />
    <vehicle id='E_W_186' type='standard_car' route='E_W' depart='778.0' departLane='random' departSpeed='10' />
    <vehicle id='N_W_187' type='standard_car' route='N_W' depart='778.0' departLane='random' departSpeed='10' />
    <vehicle id='S_E_188' type='standard_car' route='S_E' depart='778.0' departLane='random' departSpeed='10' />
    <vehicle id='E_N_189' type='standard_car' route='E_N' depart='780.0' departLane='random' departSpeed='10' />
    <vehicle id='S_N_190' type='standard_car' route='S_N' depart='785.0' departLane='random' departSpeed='10' />
    <vehicle id='N_S_191' type='standard_car' route='N_S' depart='786.0' departLane='random' departSpeed='10' />
    <vehicle id='E_N_192' type='standard_car' route='E_N' depart='786.0' departLane='random' departSpeed='10' />
    <vehicle id='N_S_193' type='standard_car' route='N_S' depart='805.0' departLane='random' departSpeed='10' />
    <vehicle id='S_E_194' type='standard_car' route='S_E' depart='805.0' departLane='random' departSpeed='10' />
    <vehicle id='N_W_195' type='standard_car' route='N_W' depart='805.0' departLane='random' departSpeed='10' />
    <vehicle id='E_N_196' type='standard_car' route='E_N' depart='807.0' departLane='random' departSpeed='10' />
    <vehicle id='W_S_197' type='standard_car' route='W_S' depart='808.0' departLane='random' departSpeed='10' />
    <vehicle id='E_W_198' type='standard_car' route='E_W' depart='817.0' departLane='random' departSpeed='10' />
    <vehicle id='W_S_199' type='standard_car' route='W_S' depart='819.0' departLane='random' departSpeed='10' />
    <vehicle id='S_E_200' type='standard_car' route='S_E' depart='847.0' departLane='random' departSpeed='10' />
    <vehicle id='E_N_201' type='standard_car' route='E_N' depart='847.0' departLane='random' departSpeed='10' />
    <vehicle id='S_N_202' type='standard_car' route='S_N' depart='850.0' departLane='random' departSpeed='10' />
    <vehicle id='N_W_203' type='standard_car' route='N_W' depart='850.0' departLane='random' departSpeed='10' />
    <vehicle id='S_N_204' type='standard_car' route='S_N' depart='858.0' departLane='random' departSpeed='10' />
    <vehicle id='S_E_205' type='standard_car' route='S_E' depart='859.0' departLane='random' departSpeed='10' />
    <vehicle id='W_S_206' type='standard_car' route='W_S' depart='868.0' departLane='random' departSpeed='10' />
    <vehicle id='W_S_207' type='standard_car' route='W_S' depart='870.0' departLane='random' departSpeed='10' />
    <vehicle id='W_E_208' type='standard_car' route='W_E' depart='870.0' departLane='random' departSpeed='10' />
    <vehicle id='S_N_209' type='standard_car' route='S_N' depart='871.0' departLane='random' departSpeed='10' />
    <vehicle id='S_E_210' type='standard_car' route='S_E' depart='877.0' departLane='random' departSpeed='10' />
    <vehicle id='E_N_211' type='standard_car' route='E_N' depart='877.0' departLane='random' departSpeed='10' />
    <vehicle id='N_S_212' type='standard_car' route='N_S' depart='877.0' departLane='random' departSpeed='10' />
    <vehicle id='W_S_213' type='standard_car' route='W_S' depart='880.0' departLane='random' departSpeed='10' />
    <vehicle id='S_E_214' type='standard_car' route='S_E' depart='884.0' departLane='random' departSpeed='10' />
    <vehicle id='S_E_215' type='standard_car' route='S_E' depart='884.0' departLane='random' departSpeed='10' />
    <vehicle id='S_E_216' type='standard_car' route='S_E' depart='884.0' departLane='random' departSpeed='10' />
    <vehicle id='N_W_217' type='standard_car' route='N_W' depart='900.0' departLane='random' departSpeed='10' />
    <vehicle id='W_S_218' type='standard_car' route='W_S' depart='901.0' departLane='random' departSpeed='10' />
    <vehicle id='S_N_219' type='standard_car' route='S_N' depart='903.0' departLane='random' departSpeed='10' />
    <vehicle id='N_S_220' type='standard_car' route='N_S' depart='911.0' departLane='random' departSpeed='10' />
    <vehicle id='S_N_221' type='standard_car' route='S_N' depart='911.0' departLane='random' departSpeed='10' />
    <vehicle id='E_W_222' type='standard_car' route='E_W' depart='912.0' departLane='random' departSpeed='10' />
    <vehicle id='S_E_223' type='standard_car' route='S_E' depart='918.0' departLane='random' departSpeed='10' />
    <vehicle id='E_N_224' type='standard_car' route='E_N' depart='918.0' departLane='random' departSpeed='10' />
    <vehicle id='W_E_225' type='standard_car' route='W_E' depart='918.0' departLane='random' departSpeed='10' />
    <vehicle id='N_S_226' type='standard_car' route='N_S' depart='918.0' departLane='random' departSpeed='10' />
    <vehicle id='E_N_227' type='standard_car' route='E_N' depart='923.0' departLane='random' departSpeed='10' />
    <vehicle id='E_N_228' type='standard_car' route='E_N' depart='923.0' departLane='random' departSpeed='10' />
    <vehicle id='S_E_229' type='standard_car' route='S_E' depart='931.0' departLane='random' departSpeed='10' />
    <vehicle id='W_E_230' type='standard_car' route='W_E' depart='934.0' departLane='random' departSpeed='10' />
    <vehicle id='N_S_231' type='standard_car' route='N_S' depart='937.0' departLane='random' departSpeed='10' />
    <vehicle id='W_S_232' type='standard_car' route='W_S' depart='937.0' departLane='random' departSpeed='10' />
    <vehicle id='S_E_233' type='standard_car' route='S_E' depart='938.0' departLane='random' departSpeed='10' />
    <vehicle id='N_W_234' type='standard_car' route='N_W' depart='938.0' departLane='random' departSpeed='10' />
    <vehicle id='E_W_235' type='standard_car' route='E_W' depart='938.0' departLane='random' departSpeed='10' />
    <vehicle id='W_E_236' type='standard_car' route='W_E' depart='938.0' departLane='random' departSpeed='10' />
    <vehicle id='E_W_237' type='standard_car' route='E_W' depart='940.0' departLane='random' departSpeed='10' />
    <vehicle id='S_N_238' type='standard_car' route='S_N' depart='945.0' departLane='random' departSpeed='10' />
    <vehicle id='N_S_239' type='standard_car' route='N_S' depart='960.0' departLane='random' departSpeed='10' />
    <vehicle id='N_S_240' type='standard_car' route='N_S' depart='960.0' departLane='random' departSpeed='10' />
    <vehicle id='W_E_241' type='standard_car' route='W_E' depart='963.0' departLane='random' departSpeed='10' />
    <vehicle id='W_E_242' type='standard_car' route='W_E' depart='964.0' departLane='random' departSpeed='10' />
    <vehicle id='N_W_243' type='standard_car' route='N_W' depart='972.0' departLane='random' departSpeed='10' />
    <vehicle id='N_W_244' type='standard_car' route='N_W' depart='981.0' departLane='random' departSpeed='10' />
    <vehicle id='S_N_245' type='standard_car' route='S_N' depart='985.0' departLane='random' departSpeed='10' />
    <vehicle id='N_W_246' type='standard_car' route='N_W' depart='988.0' departLane='random' departSpeed='10' />
    <vehicle id='S_E_247' type='standard_car' route='S_E' depart='988.0' departLane='random' departSpeed='10' />
    <vehicle id='W_E_248' type='standard_car' route='W_E' depart='993.0' departLane='random' departSpeed='10' />
    <vehicle id='N_W_249' type='standard_car' route='N_W' depart='1004.0' departLane='random' departSpeed='10' />
    <vehicle id='S_N_250' type='standard_car' route='S_N' depart='1004.0' departLane='random' departSpeed='10' />
    <vehicle id='N_W_251' type='standard_car' route='N_W' depart='1008.0' departLane='random' departSpeed='10' />
    <vehicle id='W_S_252' type='standard_car' route='W_S' depart='1018.0' departLane='random' departSpeed='10' />
    <vehicle id='E_N_253' type='standard_car' route='E_N' depart='1018.0' departLane='random' departSpeed='10' />
    <vehicle id='S_N_254' type='standard_car' route='S_N' depart='1023.0' departLane='random' departSpeed='10' />
    <vehicle id='W_E_255' type='standard_car' route='W_E' depart='1029.0' departLane='random' departSpeed='10' />
    <vehicle id='S_E_256' type='standard_car' route='S_E' depart='1029.0' departLane='random' departSpeed='10' />
    <vehicle id='W_E_257' type='standard_car' route='W_E' depart='1032.0' departLane='random' departSpeed='10' />