<routes>
    <vType id="standard_car" length='5.0' maxSpeed='11.11' minGap='2.5' accel='2.0' decel='4.5' />
<route id='N_S' edges='road_1_2_3 road_1_1_3' />
<route id='N_E' edges='road_1_2_3 road_1_1_0' />
<route id='N_W' edges='road_1_2_3 road_1_1_2' />
<route id='S_N' edges='road_1_0_1 road_1_1_1' />
<route id='S_W' edges='road_1_0_1 road_1_1_2' />
<route id='S_E' edges='road_1_0_1 road_1_1_0' />
<route id='E_W' edges='road_2_1_2 road_1_1_2' />
<route id='E_S' edges='road_2_1_2 road_1_1_3' />
<route id='E_N' edges='road_2_1_2 road_1_1_1' />
<route id='W_E' edges='road_0_1_0 road_1_1_0' />
<route id='W_N' edges='road_0_1_0 road_1_1_1' />
<route id='W_S' edges='road_0_1_0 road_1_1_3' />
<vehicle id='N_S_0' type='standard_car' route='N_S' depart='5' departLane='random' departSpeed='10' />
<vehicle id='S_N_1' type='standard_car' route='S_N' depart='5' departLane='random' departSpeed='10' />
<vehicle id='S_N_2' type='standard_car' route='S_N' depart='7' departLane='random' departSpeed='10' />
<vehicle id='S_N_3' type='standard_car' route='S_N' depart='10' departLane='random' departSpeed='10' />
<vehicle id='S_N_4' type='standard_car' route='S_N' depart='17' departLane='random' departSpeed='10' />
<vehicle id='S_N_5' type='standard_car' route='S_N' depart='17' departLane='random' departSpeed='10' />
<vehicle id='N_S_6' type='standard_car' route='N_S' depart='18' departLane='random' departSpeed='10' />
<vehicle id='S_N_7' type='standard_car' route='S_N' depart='19' departLane='random' departSpeed='10' />
<vehicle id='S_N_8' type='standard_car' route='S_N' depart='20' departLane='random' departSpeed='10' />
<vehicle id='E_W_9' type='standard_car' route='E_W' depart='22' departLane='random' departSpeed='10' />
<vehicle id='E_S_10' type='standard_car' route='E_S' depart='22' departLane='random' departSpeed='10' />
<vehicle id='S_N_11' type='standard_car' route='S_N' depart='23' departLane='random' departSpeed='10' />
<vehicle id='N_S_12' type='standard_car' route='N_S' depart='24' departLane='random' departSpeed='10' />
<vehicle id='N_E_13' type='standard_car' route='N_E' depart='24' departLane='random' departSpeed='10' />
<vehicle id='S_N_14' type='standard_car' route='S_N' depart='25' departLane='random' departSpeed='10' />
<vehicle id='S_N_15' type='standard_car' route='S_N' depart='25' departLane='random' departSpeed='10' />
<vehicle id='N_S_16' type='standard_car' route='N_S' depart='26' departLane='random' departSpeed='10' />
<vehicle id='S_N_17' type='standard_car' route='S_N' depart='40' departLane='random' departSpeed='10' />
<vehicle id='E_W_18' type='standard_car' route='E_W' depart='41' departLane='random' departSpeed='10' />
<vehicle id='S_N_19' type='standard_car' route='S_N' depart='43' departLane='random' departSpeed='10' />
<vehicle id='S_N_20' type='standard_car' route='S_N' depart='44' departLane='random' departSpeed='10' />
<vehicle id='W_E_21' type='standard_car' route='W_E' depart='47' departLane='random' departSpeed='10' />
<vehicle id='W_N_22' type='standard_car' route='W_N' depart='47' departLane='random' departSpeed='10' />
<vehicle id='W_E_23' type='standard_car' route='W_E' depart='49' departLane='random' departSpeed='10' />
<vehicle id='W_N_24' type='standard_car' route='W_N' depart='49' departLane='random' departSpeed='10' />
<vehicle id='W_E_25' type='standard_car' route='W_E' depart='50' departLane='random' departSpeed='10' />
<vehicle id='E_W_26' type='standard_car' route='E_W' depart='52' departLane='random' departSpeed='10' />
<vehicle id='W_E_27' type='standard_car' route='W_E' depart='54' departLane='random' departSpeed='10' />
<vehicle id='W_E_28' type='standard_car' route='W_E' depart='57' departLane='random' departSpeed='10' />
<vehicle id='W_E_29' type='standard_car' route='W_E' depart='60' departLane='random' departSpeed='10' />
<vehicle id='E_W_30' type='standard_car' route='E_W' depart='65' departLane='random' departSpeed='10' />
<vehicle id='E_W_31' type='standard_car' route='E_W' depart='67' departLane='random' departSpeed='10' />
<vehicle id='E_W_32' type='standard_car' route='E_W' depart='71' departLane='random' departSpeed='10' />
<vehicle id='W_E_33' type='standard_car' route='W_E' depart='74' departLane='random' departSpeed='10' />
<vehicle id='W_N_34' type='standard_car' route='W_N' depart='74' departLane='random' departSpeed='10' />
<vehicle id='E_W_35' type='standard_car' route='E_W' depart='75' departLane='random' departSpeed='10' />
<vehicle id='E_W_36' type='standard_car' route='E_W' depart='77' departLane='random' departSpeed='10' />
<vehicle id='W_E_37' type='standard_car' route='W_E' depart='78' departLane='random' departSpeed='10' />
<vehicle id='W_E_38' type='standard_car' route='W_E' depart='79' departLane='random' departSpeed='10' />
<vehicle id='W_E_39' type='standard_car' route='W_E' depart='79' departLane='random' departSpeed='10' />
<vehicle id='W_N_40' type='standard_car' route='W_N' depart='79' departLane='random' departSpeed='10' />
<vehicle id='W_E_41' type='standard_car' route='W_E' depart='79' departLane='random' departSpeed='10' />
<vehicle id='W_E_42' type='standard_car' route='W_E' depart='82' departLane='random' departSpeed='10' />
<vehicle id='E_W_43' type='standard_car' route='E_W' depart='84' departLane='random' departSpeed='10' />
<vehicle id='E_W_44' type='standard_car' route='E_W' depart='84' departLane='random' departSpeed='10' />
<vehicle id='E_W_45' type='standard_car' route='E_W' depart='85' departLane='random' departSpeed='10' />
<vehicle id='E_W_46' type='standard_car' route='E_W' depart='86' departLane='random' departSpeed='10' />
<vehicle id='E_W_47' type='standard_car' route='E_W' depart='87' departLane='random' departSpeed='10' />
<vehicle id='W_E_48' type='standard_car' route='W_E' depart='88' departLane='random' departSpeed='10' />
<vehicle id='W_E_49' type='standard_car' route='W_E' depart='89' departLane='random' departSpeed='10' />
<vehicle id='W_E_50' type='standard_car' route='W_E' depart='90' departLane='random' departSpeed='10' />
<vehicle id='W_N_51' type='standard_car' route='W_N' depart='90' departLane='random' departSpeed='10' />
<vehicle id='E_W_52' type='standard_car' route='E_W' depart='91' departLane='random' departSpeed='10' />
<vehicle id='W_E_53' type='standard_car' route='W_E' depart='91' departLane='random' departSpeed='10' />
<vehicle id='E_W_54' type='standard_car' route='E_W' depart='92' departLane='random' departSpeed='10' />
<vehicle id='W_E_55' type='standard_car' route='W_E' depart='93' departLane='random' departSpeed='10' />
<vehicle id='W_N_56' type='standard_car' route='W_N' depart='93' departLane='random' departSpeed='10' />
<vehicle id='W_E_57' type='standard_car' route='W_E' depart='94' departLane='random' departSpeed='10' />
<vehicle id='E_W_58' type='standard_car' route='E_W' depart='96' departLane='random' departSpeed='10' />
<vehicle id='W_E_59' type='standard_car' route='W_E' depart='97' departLane='random' departSpeed='10' />
<vehicle id='W_N_60' type='standard_car' route='W_N' depart='97' departLane='random' departSpeed='10' />
<vehicle id='W_E_61' type='standard_car' route='W_E' depart='98' departLane='random' departSpeed='10' />
<vehicle id='W_N_62' type='standard_car' route='W_N' depart='98' departLane='random' departSpeed='10' />
<vehicle id='E_W_63' type='standard_car' route='E_W' depart='101' departLane='random' departSpeed='10' />
<vehicle id='E_W_64' type='standard_car' route='E_W' depart='103' departLane='random' departSpeed='10' />
<vehicle id='E_S_65' type='standard_car' route='E_S' depart='103' departLane='random' departSpeed='10' />
<vehicle id='W_E_66' type='standard_car' route='W_E' depart='104' departLane='random' departSpeed='10' />
<vehicle id='E_W_67' type='standard_car' route='E_W' depart='104' departLane='random' departSpeed='10' />
<vehicle id='W_E_68' type='standard_car' route='W_E' depart='105' departLane='random' departSpeed='10' />
<vehicle id='W_E_69' type='standard_car' route='W_E' depart='106' departLane='random' departSpeed='10' />
<vehicle id='S_N_70' type='standard_car' route='S_N' depart='110' departLane='random' departSpeed='10' />
<vehicle id='E_W_71' type='standard_car' route='E_W' depart='112' departLane='random' departSpeed='10' />
<vehicle id='E_W_72' type='standard_car' route='E_W' depart='120' departLane='random' departSpeed='10' />
<vehicle id='E_W_73' type='standard_car' route='E_W' depart='122' departLane='random' departSpeed='10' />
<vehicle id='E_S_74' type='standard_car' route='E_S' depart='122' departLane='random' departSpeed='10' />
<vehicle id='E_W_75' type='standard_car' route='E_W' depart='123' departLane='random' departSpeed='10' />
<vehicle id='E_W_76' type='standard_car' route='E_W' depart='124' departLane='random' departSpeed='10' />
<vehicle id='S_N_77' type='standard_car' route='S_N' depart='125' departLane='random' departSpeed='10' />
<vehicle id='E_W_78' type='standard_car' route='E_W' depart='125' departLane='random' departSpeed='10' />
<vehicle id='E_S_79' type='standard_car' route='E_S' depart='125' departLane='random' departSpeed='10' />
<vehicle id='W_E_80' type='standard_car' route='W_E' depart='126' departLane='random' departSpeed='10' />
<vehicle id='S_N_81' type='standard_car' route='S_N' depart='130' departLane='random' departSpeed='10' />
<vehicle id='E_W_82' type='standard_car' route='E_W' depart='136' departLane='random' departSpeed='10' />
<vehicle id='E_W_83' type='standard_car' route='E_W' depart='137' departLane='random' departSpeed='10' />
<vehicle id='W_E_84' type='standard_car' route='W_E' depart='140' departLane='random' departSpeed='10' />
<vehicle id='N_S_85' type='standard_car' route='N_S' depart='141' departLane='random' departSpeed='10' />
<vehicle id='N_E_86' type='standard_car' route='N_E' depart='141' departLane='random' departSpeed='10' />
<vehicle id='W_E_87' type='standard_car' route='W_E' depart='144' departLane='random' departSpeed='10' />
<vehicle id='W_N_88' type='standard_car' route='W_N' depart='144' departLane='random' departSpeed='10' />
<vehicle id='W_E_89' type='standard_car' route='W_E' depart='145' departLane='random' departSpeed='10' />
<vehicle id='W_E_90' type='standard_car' route='W_E' depart='145' departLane='random' departSpeed='10' />
<vehicle id='W_E_91' type='standard_car' route='W_E' depart='145' departLane='random' departSpeed='10' />
<vehicle id='E_W_92' type='standard_car' route='E_W' depart='145' departLane='random' departSpeed='10' />
<vehicle id='W_E_93' type='standard_car' route='W_E' depart='150' departLane='random' departSpeed='10' />
<vehicle id='W_E_94' type='standard_car' route='W_E' depart='163' departLane='random' departSpeed='10' />
<vehicle id='N_S_95' type='standard_car' route='N_S' depart='165' departLane='random' departSpeed='10' />
<vehicle id='W_E_96' type='standard_car' route='W_E' depart='170' departLane='random' departSpeed='10' />
<vehicle id='N_S_97' type='standard_car' route='N_S' depart='170' departLane='random' departSpeed='10' />
<vehicle id='E_W_98' type='standard_car' route='E_W' depart='171' departLane='random' departSpeed='10' />
<vehicle id='E_S_99' type='standard_car' route='E_S' depart='171' departLane='random' departSpeed='10' />
<vehicle id='S_N_100' type='standard_car' route='S_N' depart='172' departLane='random' departSpeed='10' />
<vehicle id='S_N_101' type='standard_car' route='S_N' depart='175' departLane='random' departSpeed='10' />
<vehicle id='S_N_102' type='standard_car' route='S_N' depart='177' departLane='random' departSpeed='10' />
<vehicle id='S_N_103' type='standard_car' route='S_N' depart='180' departLane='random' departSpeed='10' />
<vehicle id='S_W_104' type='standard_car' route='S_W' depart='180' departLane='random' departSpeed='10' />
<vehicle id='S_N_105' type='standard_car' route='S_N' depart='188' departLane='random' departSpeed='10' />
<vehicle id='S_W_106' type='standard_car' route='S_W' depart='188' departLane='random' departSpeed='10' />
<vehicle id='E_W_107' type='standard_car' route='E_W' depart='200' departLane='random' departSpeed='10' />
<vehicle id='S_N_108' type='standard_car' route='S_N' depart='201' departLane='random' departSpeed='10' />
<vehicle id='N_S_109' type='standard_car' route='N_S' depart='202' departLane='random' departSpeed='10' />
<vehicle id='N_E_110' type='standard_car' route='N_E' depart='202' departLane='random' departSpeed='10' />
<vehicle id='N_S_111' type='standard_car' route='N_S' depart='203' departLane='random' departSpeed='10' />
<vehicle id='E_W_112' type='standard_car' route='E_W' depart='203' departLane='random' departSpeed='10' />
<vehicle id='S_N_113' type='standard_car' route='S_N' depart='204' departLane='random' departSpeed='10' />
<vehicle id='S_N_114' type='standard_car' route='S_N' depart='207' departLane='random' departSpeed='10' />
<vehicle id='S_N_115' type='standard_car' route='S_N' depart='216' departLane='random' departSpeed='10' />
<vehicle id='S_N_116' type='standard_car' route='S_N' depart='218' departLane='random' departSpeed='10' />
<vehicle id='E_W_117' type='standard_car' route='E_W' depart='218' departLane='random' departSpeed='10' />
<vehicle id='S_N_118' type='standard_car' route='S_N' depart='219' departLane='random' departSpeed='10' />
<vehicle id='S_N_119' type='standard_car' route='S_N' depart='223' departLane='random' departSpeed='10' />
<vehicle id='W_E_120' type='standard_car' route='W_E' depart='225' departLane='random' departSpeed='10' />
<vehicle id='E_W_121' type='standard_car' route='E_W' depart='229' departLane='random' departSpeed='10' />
<vehicle id='S_N_122' type='standard_car' route='S_N' depart='232' departLane='random' departSpeed='10' />
<vehicle id='E_W_123' type='standard_car' route='E_W' depart='232' departLane='random' departSpeed='10' />
<vehicle id='E_W_124' type='standard_car' route='E_W' depart='234' departLane='random' departSpeed='10' />
<vehicle id='E_W_125' type='standard_car' route='E_W' depart='239' departLane='random' departSpeed='10' />
<vehicle id='W_E_126' type='standard_car' route='W_E' depart='241' departLane='random' departSpeed='10' />
<vehicle id='W_E_127' type='standard_car' route='W_E' depart='244' departLane='random' departSpeed='10' />
<vehicle id='E_W_128' type='standard_car' route='E_W' depart='244' departLane='random' departSpeed='10' />
<vehicle id='W_E_129' type='standard_car' route='W_E' depart='245' departLane='random' departSpeed='10' />
<vehicle id='E_W_130' type='standard_car' route='E_W' depart='254' departLane='random' departSpeed='10' />
<vehicle id='E_W_131' type='standard_car' route='E_W' depart='256' departLane='random' departSpeed='10' />
<vehicle id='W_E_132' type='standard_car' route='W_E' depart='260' departLane='random' departSpeed='10' />
<vehicle id='E_W_133' type='standard_car' route='E_W' depart='261' departLane='random' departSpeed='10' />
<vehicle id='W_E_134' type='standard_car' route='W_E' depart='263' departLane='random' departSpeed='10' />
<vehicle id='W_E_135' type='standard_car' route='W_E' depart='266' departLane='random' departSpeed='10' />
<vehicle id='E_W_136' type='standard_car' route='E_W' depart='269' departLane='random' departSpeed='10' />
<vehicle id='W_E_137' type='standard_car' route='W_E' depart='269' departLane='random' departSpeed='10' />
<vehicle id='E_W_138' type='standard_car' route='E_W' depart='269' departLane='random' departSpeed='10' />
<vehicle id='E_S_139' type='standard_car' route='E_S' depart='269' departLane='random' departSpeed='10' />
<vehicle id='E_W_140' type='standard_car' route='E_W' depart='271' departLane='random' departSpeed='10' />
<vehicle id='E_S_141' type='standard_car' route='E_S' depart='271' departLane='random' departSpeed='10' />
<vehicle id='E_W_142' type='standard_car' route='E_W' depart='272' departLane='random' departSpeed='10' />
<vehicle id='E_S_143' type='standard_car' route='E_S' depart='272' departLane='random' departSpeed='10' />
<vehicle id='E_W_144' type='standard_car' route='E_W' depart='272' departLane='random' departSpeed='10' />
<vehicle id='E_W_145' type='standard_car' route='E_W' depart='273' departLane='random' departSpeed='10' />
<vehicle id='W_E_146' type='standard_car' route='W_E' depart='273' departLane='random' departSpeed='10' />
<vehicle id='W_N_147' type='standard_car' route='W_N' depart='273' departLane='random' departSpeed='10' />
<vehicle id='S_N_148' type='standard_car' route='S_N' depart='274' departLane='random' departSpeed='10' />
<vehicle id='W_E_149' type='standard_car' route='W_E' depart='276' departLane='random' departSpeed='10' />
<vehicle id='W_E_150' type='standard_car' route='W_E' depart='277' departLane='random' departSpeed='10' />
<vehicle id='W_N_151' type='standard_car' route='W_N' depart='277' departLane='random' departSpeed='10' />
<vehicle id='E_W_152' type='standard_car' route='E_W' depart='280' departLane='random' departSpeed='10' />
<vehicle id='S_N_153' type='standard_car' route='S_N' depart='280' departLane='random' departSpeed='10' />
<vehicle id='E_W_154' type='standard_car' route='E_W' depart='282' departLane='random' departSpeed='10' />
<vehicle id='W_E_155' type='standard_car' route='W_E' depart='283' departLane='random' departSpeed='10' />
<vehicle id='W_E_156' type='standard_car' route='W_E' depart='285' departLane='random' departSpeed='10' />
<vehicle id='E_W_157' type='standard_car' route='E_W' depart='289' departLane='random' departSpeed='10' />
<vehicle id='E_W_158' type='standard_car' route='E_W' depart='290' departLane='random' departSpeed='10' />
<vehicle id='S_N_159' type='standard_car' route='S_N' depart='292' departLane='random' departSpeed='10' />
<vehicle id='S_W_160' type='standard_car' route='S_W' depart='292' departLane='random' departSpeed='10' />
<vehicle id='E_W_161' type='standard_car' route='E_W' depart='294' departLane='random' departSpeed='10' />
<vehicle id='W_E_162' type='standard_car' route='W_E' depart='296' departLane='random' departSpeed='10' />
<vehicle id='W_N_163' type='standard_car' route='W_N' depart='296' departLane='random' departSpeed='10' />
<vehicle id='E_W_164' type='standard_car' route='E_W' depart='297' departLane='random' departSpeed='10' />
<vehicle id='E_S_165' type='standard_car' route='E_S' depart='297' departLane='random' departSpeed='10' />
<vehicle id='W_E_166' type='standard_car' route='W_E' depart='297' departLane='random' departSpeed='10' />
<vehicle id='S_N_167' type='standard_car' route='S_N' depart='300' departLane='random' departSpeed='10' />
<vehicle id='N_S_168' type='standard_car' route='N_S' depart='300' departLane='random' departSpeed='10' />
<vehicle id='E_W_169' type='standard_car' route='E_W' depart='300' departLane='random' departSpeed='10' />
<vehicle id='E_W_170' type='standard_car' route='E_W' depart='302' departLane='random' departSpeed='10' />
<vehicle id='W_E_171' type='standard_car' route='W_E' depart='303' departLane='random' departSpeed='10' />
<vehicle id='W_N_172' type='standard_car' route='W_N' depart='303' departLane='random' departSpeed='10' />
<vehicle id='W_E_173' type='standard_car' route='W_E' depart='304' departLane='random' departSpeed='10' />
<vehicle id='S_N_174' type='standard_car' route='S_N' depart='306' departLane='random' departSpeed='10' />
<vehicle id='E_W_175' type='standard_car' route='E_W' depart='307' departLane='random' departSpeed='10' />
<vehicle id='W_E_176' type='standard_car' route='W_E' depart='314' departLane='random' departSpeed='10' />
<vehicle id='W_N_177' type='standard_car' route='W_N' depart='314' departLane='random' departSpeed='10' />
<vehicle id='N_S_178' type='standard_car' route='N_S' depart='333' departLane='random' departSpeed='10' />
<vehicle id='E_W_179' type='standard_car' route='E_W' depart='336' departLane='random' departSpeed='10' />
<vehicle id='N_S_180' type='standard_car' route='N_S' depart='336' departLane='random' departSpeed='10' />
<vehicle id='N_E_181' type='standard_car' route='N_E' depart='336' departLane='random' departSpeed='10' />
<vehicle id='W_E_182' type='standard_car' route='W_E' depart='346' departLane='random' departSpeed='10' />
<vehicle id='S_N_183' type='standard_car' route='S_N' depart='354' departLane='random' departSpeed='10' />
<vehicle id='S_W_184' type='standard_car' route='S_W' depart='354' departLane='random' departSpeed='10' />
<vehicle id='N_S_185' type='standard_car' route='N_S' depart='360' departLane='random' departSpeed='10' />
<vehicle id='N_S_186' type='standard_car' route='N_S' depart='364' departLane='random' departSpeed='10' />
<vehicle id='S_N_187' type='standard_car' route='S_N' depart='365' departLane='random' departSpeed='10' />
<vehicle id='S_W_188' type='standard_car' route='S_W' depart='365' departLane='random' departSpeed='10' />
<vehicle id='N_S_189' type='standard_car' route='N_S' depart='368' departLane='random' departSpeed='10' />
<vehicle id='E_W_190' type='standard_car' route='E_W' depart='368' departLane='random' departSpeed='10' />
<vehicle id='E_W_191' type='standard_car' route='E_W' depart='372' departLane='random' departSpeed='10' />
<vehicle id='N_S_192' type='standard_car' route='N_S' depart='372' departLane='random' departSpeed='10' />
<vehicle id='E_W_193' type='standard_car' route='E_W' depart='377' departLane='random' departSpeed='10' />
<vehicle id='E_S_194' type='standard_car' route='E_S' depart='377' departLane='random' departSpeed='10' />
<vehicle id='S_N_195' type='standard_car' route='S_N' depart='378' departLane='random' departSpeed='10' />
<vehicle id='E_W_196' type='standard_car' route='E_W' depart='378' departLane='random' departSpeed='10' />
<vehicle id='E_W_197' type='standard_car' route='E_W' depart='381' departLane='random' departSpeed='10' />
<vehicle id='E_S_198' type='standard_car' route='E_S' depart='381' departLane='random' departSpeed='10' />
<vehicle id='E_W_199' type='standard_car' route='E_W' depart='381' departLane='random' departSpeed='10' />
<vehicle id='E_W_200' type='standard_car' route='E_W' depart='382' departLane='random' departSpeed='10' />
<vehicle id='N_S_201' type='standard_car' route='N_S' depart='383' departLane='random' departSpeed='10' />
<vehicle id='W_E_202' type='standard_car' route='W_E' depart='387' departLane='random' departSpeed='10' />
<vehicle id='N_S_203' type='standard_car' route='N_S' depart='390' departLane='random' departSpeed='10' />
<vehicle id='S_N_204' type='standard_car' route='S_N' depart='393' departLane='random' departSpeed='10' />
<vehicle id='W_E_205' type='standard_car' route='W_E' depart='403' departLane='random' departSpeed='10' />
<vehicle id='W_E_206' type='standard_car' route='W_E' depart='405' departLane='random' departSpeed='10' />
<vehicle id='W_E_207' type='standard_car' route='W_E' depart='406' departLane='random' departSpeed='10' />
<vehicle id='W_E_208' type='standard_car' route='W_E' depart='408' departLane='random' departSpeed='10' />
<vehicle id='W_E_209' type='standard_car' route='W_E' depart='409' departLane='random' departSpeed='10' />
<vehicle id='E_W_210' type='standard_car' route='E_W' depart='413' departLane='random' departSpeed='10' />
<vehicle id='W_E_211' type='standard_car' route='W_E' depart='415' departLane='random' departSpeed='10' />
<vehicle id='S_N_212' type='standard_car' route='S_N' depart='416' departLane='random' departSpeed='10' />
<vehicle id='S_N_213' type='standard_car' route='S_N' depart='419' departLane='random' departSpeed='10' />
<vehicle id='E_W_214' type='standard_car' route='E_W' depart='420' departLane='random' departSpeed='10' />
<vehicle id='E_S_215' type='standard_car' route='E_S' depart='420' departLane='random' departSpeed='10' />
<vehicle id='W_E_216' type='standard_car' route='W_E' depart='420' departLane='random' departSpeed='10' />
<vehicle id='S_N_217' type='standard_car' route='S_N' depart='421' departLane='random' departSpeed='10' />
<vehicle id='W_E_218' type='standard_car' route='W_E' depart='427' departLane='random' departSpeed='10' />
<vehicle id='E_W_219' type='standard_car' route='E_W' depart='431' departLane='random' departSpeed='10' />
<vehicle id='W_E_220' type='standard_car' route='W_E' depart='432' departLane='random' departSpeed='10' />
<vehicle id='W_E_221' type='standard_car' route='W_E' depart='432' departLane='random' departSpeed='10' />
<vehicle id='W_E_222' type='standard_car' route='W_E' depart='434' departLane='random' departSpeed='10' />
<vehicle id='E_W_223' type='standard_car' route='E_W' depart='438' departLane='random' departSpeed='10' />
<vehicle id='W_E_224' type='standard_car' route='W_E' depart='439' departLane='random' departSpeed='10' />
<vehicle id='W_E_225' type='standard_car' route='W_E' depart='439' departLane='random' departSpeed='10' />
<vehicle id='W_E_226' type='standard_car' route='W_E' depart='441' departLane='random' departSpeed='10' />
<vehicle id='W_N_227' type='standard_car' route='W_N' depart='441' departLane='random' departSpeed='10' />
<vehicle id='E_W_228' type='standard_car' route='E_W' depart='441' departLane='random' departSpeed='10' />
<vehicle id='E_S_229' type='standard_car' route='E_S' depart='441' departLane='random' departSpeed='10' />
<vehicle id='N_S_230' type='standard_car' route='N_S' depart='443' departLane='random' departSpeed='10' />
<vehicle id='W_E_231' type='standard_car' route='W_E' depart='444' departLane='random' departSpeed='10' />
<vehicle id='W_E_232' type='standard_car' route='W_E' depart='444' departLane='random' departSpeed='10' />
<vehicle id='E_W_233' type='standard_car' route='E_W' depart='445' departLane='random' departSpeed='10' />
<vehicle id='W_E_234' type='standard_car' route='W_E' depart='446' departLane='random' departSpeed='10' />
<vehicle id='E_W_235' type='standard_car' route='E_W' depart='446' departLane='random' departSpeed='10' />
<vehicle id='E_W_236' type='standard_car' route='E_W' depart='447' departLane='random' departSpeed='10' />
<vehicle id='E_S_237' type='standard_car' route='E_S' depart='447' departLane='random' departSpeed='10' />
<vehicle id='E_W_238' type='standard_car' route='E_W' depart='448' departLane='random' departSpeed='10' />
<vehicle id='E_S_239' type='standard_car' route='E_S' depart='448' departLane='random' departSpeed='10' />
<vehicle id='E_W_240' type='standard_car' route='E_W' depart='449' departLane='random' departSpeed='10' />
<vehicle id='N_S_241' type='standard_car' route='N_S' depart='451' departLane='random' departSpeed='10' />
<vehicle id='E_W_242' type='standard_car' route='E_W' depart='451' departLane='random' departSpeed='10' />
<vehicle id='E_W_243' type='standard_car' route='E_W' depart='454' departLane='random' departSpeed='10' />
<vehicle id='E_W_244' type='standard_car' route='E_W' depart='454' departLane='random' departSpeed='10' />
<vehicle id='E_W_245' type='standard_car' route='E_W' depart='456' departLane='random' departSpeed='10' />
<vehicle id='E_W_246' type='standard_car' route='E_W' depart='457' departLane='random' departSpeed='10' />
<vehicle id='E_W_247' type='standard_car' route='E_W' depart='460' departLane='random' departSpeed='10' />
<vehicle id='E_W_248' type='standard_car' route='E_W' depart='461' departLane='random' departSpeed='10' />
<vehicle id='N_S_249' type='standard_car' route='N_S' depart='461' departLane='random' departSpeed='10' />
<vehicle id='E_W_250' type='standard_car' route='E_W' depart='461' departLane='random' departSpeed='10' />
<vehicle id='E_W_251' type='standard_car' route='E_W' depart='463' departLane='random' departSpeed='10' />
<vehicle id='E_W_252' type='standard_car' route='E_W' depart='468' departLane='random' departSpeed='10' />
<vehicle id='S_N_253' type='standard_car' route='S_N' depart='468' departLane='random' departSpeed='10' />
<vehicle id='W_E_254' type='standard_car' route='W_E' depart='474' departLane='random' departSpeed='10' />
<vehicle id='W_N_255' type='standard_car' route='W_N' depart='474' departLane='random' departSpeed='10' />
<vehicle id='E_W_256' type='standard_car' route='E_W' depart='485' departLane='random' departSpeed='10' />
<vehicle id='W_E_257' type='standard_car' route='W_E' depart='485' departLane='random' departSpeed='10' />
<vehicle id='W_N_258' type='standard_car' route='W_N' depart='485' departLane='random' departSpeed='10' />
<vehicle id='S_N_259' type='standard_car' route='S_N' depart='485' departLane='random' departSpeed='10' />
<vehicle id='E_W_260' type='standard_car' route='E_W' depart='491' departLane='random' departSpeed='10' />
<vehicle id='E_S_261' type='standard_car' route='E_S' depart='491' departLane='random' departSpeed='10' />
<vehicle id='W_E_262' type='standard_car' route='W_E' depart='491' departLane='random' departSpeed='10' />
<vehicle id='W_N_263' type='standard_car' route='W_N' depart='491' departLane='random' departSpeed='10' />
<vehicle id='W_E_264' type='standard_car' route='W_E' depart='492' departLane='random' departSpeed='10' />
<vehicle id='S_N_265' type='standard_car' route='S_N' depart='492' departLane='random' departSpeed='10' />
<vehicle id='W_E_266' type='standard_car' route='W_E' depart='493' departLane='random' departSpeed='10' />
<vehicle id='W_N_267' type='standard_car' route='W_N' depart='493' departLane='random' departSpeed='10' />
<vehicle id='W_E_268' type='standard_car' route='W_E' depart='494' departLane='random' departSpeed='10' />
<vehicle id='W_N_269' type='standard_car' route='W_N' depart='494' departLane='random' departSpeed='10' />
<vehicle id='S_N_270' type='standard_car' route='S_N' depart='495' departLane='random' departSpeed='10' />
<vehicle id='S_W_271' type='standard_car' route='S_W' depart='495' departLane='random' departSpeed='10' />
<vehicle id='E_W_272' type='standard_car' route='E_W' depart='496' departLane='random' departSpeed='10' />
<vehicle id='W_E_273' type='standard_car' route='W_E' depart='497' departLane='random' departSpeed='10' />
<vehicle id='S_N_274' type='standard_car' route='S_N' depart='500' departLane='random' departSpeed='10' />