<routes>
    <vType id="standard_car" length='5.0' maxSpeed='11.11' minGap='2.5' accel='2.0' decel='4.5' />
<route id='N_S' edges='road_1_2_3 road_1_1_3' />
<route id='N_E' edges='road_1_2_3 road_1_1_0' />
<route id='N_W' edges='road_1_2_3 road_1_1_2' />
<route id='S_N' edges='road_1_0_1 road_1_1_1' />
<route id='S_W' edges='road_1_0_1 road_1_1_2' />
<route id='S_E' edges='road_1_0_1 road_1_1_0' />
<route id='E_W' edges='road_2_1_2 road_1_1_2' />
<route id='E_S' edges='road_2_1_2 road_1_1_3' />
<route id='E_N' edges='road_2_1_2 road_1_1_1' />
<route id='W_E' edges='road_0_1_0 road_1_1_0' />
<route id='W_N' edges='road_0_1_0 road_1_1_1' />
<route id='W_S' edges='road_0_1_0 road_1_1_3' />
<vehicle id='N_S_0' type='standard_car' route='N_S' depart='1' departLane='random' departSpeed='10' />
<vehicle id='E_W_1' type='standard_car' route='E_W' depart='16' departLane='random' departSpeed='10' />
<vehicle id='E_W_2' type='standard_car' route='E_W' depart='22' departLane='random' departSpeed='10' />
<vehicle id='E_W_3' type='standard_car' route='E_W' depart='24' departLane='random' departSpeed='10' />
<vehicle id='W_E_4' type='standard_car' route='W_E' depart='27' departLane='random' departSpeed='10' />
<vehicle id='E_W_5' type='standard_car' route='E_W' depart='29' departLane='random' departSpeed='10' />
<vehicle id='W_E_6' type='standard_car' route='W_E' depart='30' departLane='random' departSpeed='10' />
<vehicle id='E_W_7' type='standard_car' route='E_W' depart='34' departLane='random' departSpeed='10' />
<vehicle id='W_E_8' type='standard_car' route='W_E' depart='34' departLane='random' departSpeed='10' />
<vehicle id='S_N_9' type='standard_car' route='S_N' depart='34' departLane='random' departSpeed='10' />
<vehicle id='S_N_10' type='standard_car' route='S_N' depart='38' departLane='random' departSpeed='10' />
<vehicle id='W_E_11' type='standard_car' route='W_E' depart='42' departLane='random' departSpeed='10' />
<vehicle id='W_N_12' type='standard_car' route='W_N' depart='42' departLane='random' departSpeed='10' />
<vehicle id='S_N_13' type='standard_car' route='S_N' depart='43' departLane='random' departSpeed='10' />
<vehicle id='W_E_14' type='standard_car' route='W_E' depart='45' departLane='random' departSpeed='10' />
<vehicle id='S_N_15' type='standard_car' route='S_N' depart='48' departLane='random' departSpeed='10' />
<vehicle id='S_N_16' type='standard_car' route='S_N' depart='51' departLane='random' departSpeed='10' />
<vehicle id='W_E_17' type='standard_car' route='W_E' depart='56' departLane='random' departSpeed='10' />
<vehicle id='S_N_18' type='standard_car' route='S_N' depart='56' departLane='random' departSpeed='10' />
<vehicle id='S_N_19' type='standard_car' route='S_N' depart='56' departLane='random' departSpeed='10' />
<vehicle id='S_N_20' type='standard_car' route='S_N' depart='62' departLane='random' departSpeed='10' />
<vehicle id='S_W_21' type='standard_car' route='S_W' depart='62' departLane='random' departSpeed='10' />
<vehicle id='W_E_22' type='standard_car' route='W_E' depart='63' departLane='random' departSpeed='10' />
<vehicle id='W_N_23' type='standard_car' route='W_N' depart='63' departLane='random' departSpeed='10' />
<vehicle id='E_W_24' type='standard_car' route='E_W' depart='64' departLane='random' departSpeed='10' />
<vehicle id='S_N_25' type='standard_car' route='S_N' depart='65' departLane='random' departSpeed='10' />
<vehicle id='S_W_26' type='standard_car' route='S_W' depart='65' departLane='random' departSpeed='10' />
<vehicle id='S_N_27' type='standard_car' route='S_N' depart='67' departLane='random' departSpeed='10' />
<vehicle id='W_E_28' type='standard_car' route='W_E' depart='69' departLane='random' departSpeed='10' />
<vehicle id='E_W_29' type='standard_car' route='E_W' depart='70' departLane='random' departSpeed='10' />
<vehicle id='S_N_30' type='standard_car' route='S_N' depart='80' departLane='random' departSpeed='10' />
<vehicle id='S_W_31' type='standard_car' route='S_W' depart='80' departLane='random' departSpeed='10' />
<vehicle id='E_W_32' type='standard_car' route='E_W' depart='84' departLane='random' departSpeed='10' />
<vehicle id='E_W_33' type='standard_car' route='E_W' depart='96' departLane='random' departSpeed='10' />
<vehicle id='S_N_34' type='standard_car' route='S_N' depart='96' departLane='random' departSpeed='10' />
<vehicle id='N_S_35' type='standard_car' route='N_S' depart='107' departLane='random' departSpeed='10' />
<vehicle id='S_N_36' type='standard_car' route='S_N' depart='109' departLane='random' departSpeed='10' />
<vehicle id='S_N_37' type='standard_car' route='S_N' depart='112' departLane='random' departSpeed='10' />
<vehicle id='W_E_38' type='standard_car' route='W_E' depart='113' departLane='random' departSpeed='10' />
<vehicle id='S_N_39' type='standard_car' route='S_N' depart='113' departLane='random' departSpeed='10' />
<vehicle id='W_E_40' type='standard_car' route='W_E' depart='118' departLane='random' departSpeed='10' />
<vehicle id='S_N_41' type='standard_car' route='S_N' depart='119' departLane='random' departSpeed='10' />
<vehicle id='E_W_42' type='standard_car' route='E_W' depart='121' departLane='random' departSpeed='10' />
<vehicle id='E_S_43' type='standard_car' route='E_S' depart='121' departLane='random' departSpeed='10' />
<vehicle id='W_E_44' type='standard_car' route='W_E' depart='121' departLane='random' departSpeed='10' />
<vehicle id='S_N_45' type='standard_car' route='S_N' depart='122' departLane='random' departSpeed='10' />
<vehicle id='W_E_46' type='standard_car' route='W_E' depart='122' departLane='random' departSpeed='10' />
<vehicle id='W_E_47' type='standard_car' route='W_E' depart='124' departLane='random' departSpeed='10' />
<vehicle id='S_N_48' type='standard_car' route='S_N' depart='125' departLane='random' departSpeed='10' />
<vehicle id='W_E_49' type='standard_car' route='W_E' depart='128' departLane='random' departSpeed='10' />
<vehicle id='W_E_50' type='standard_car' route='W_E' depart='130' departLane='random' departSpeed='10' />
<vehicle id='S_N_51' type='standard_car' route='S_N' depart='139' departLane='random' departSpeed='10' />
<vehicle id='W_E_52' type='standard_car' route='W_E' depart='139' departLane='random' departSpeed='10' />
<vehicle id='N_S_53' type='standard_car' route='N_S' depart='145' departLane='random' departSpeed='10' />
<vehicle id='S_N_54' type='standard_car' route='S_N' depart='149' departLane='random' departSpeed='10' />
<vehicle id='S_N_55' type='standard_car' route='S_N' depart='154' departLane='random' departSpeed='10' />
<vehicle id='W_E_56' type='standard_car' route='W_E' depart='157' departLane='random' departSpeed='10' />
<vehicle id='W_N_57' type='standard_car' route='W_N' depart='157' departLane='random' departSpeed='10' />
<vehicle id='N_S_58' type='standard_car' route='N_S' depart='157' departLane='random' departSpeed='10' />
<vehicle id='S_N_59' type='standard_car' route='S_N' depart='161' departLane='random' departSpeed='10' />
<vehicle id='S_W_60' type='standard_car' route='S_W' depart='161' departLane='random' departSpeed='10' />
<vehicle id='N_S_61' type='standard_car' route='N_S' depart='162' departLane='random' departSpeed='10' />
<vehicle id='N_S_62' type='standard_car' route='N_S' depart='163' departLane='random' departSpeed='10' />
<vehicle id='N_S_63' type='standard_car' route='N_S' depart='165' departLane='random' departSpeed='10' />
<vehicle id='S_N_64' type='standard_car' route='S_N' depart='165' departLane='random' departSpeed='10' />
<vehicle id='S_W_65' type='standard_car' route='S_W' depart='165' departLane='random' departSpeed='10' />
<vehicle id='N_S_66' type='standard_car' route='N_S' depart='167' departLane='random' departSpeed='10' />
<vehicle id='S_N_67' type='standard_car' route='S_N' depart='170' departLane='random' departSpeed='10' />
<vehicle id='N_S_68' type='standard_car' route='N_S' depart='171' departLane='random' departSpeed='10' />
<vehicle id='N_S_69' type='standard_car' route='N_S' depart='173' departLane='random' departSpeed='10' />
<vehicle id='S_N_70' type='standard_car' route='S_N' depart='173' departLane='random' departSpeed='10' />
<vehicle id='S_N_71' type='standard_car' route='S_N' depart='175' departLane='random' departSpeed='10' />
<vehicle id='S_N_72' type='standard_car' route='S_N' depart='177' departLane='random' departSpeed='10' />
<vehicle id='N_S_73' type='standard_car' route='N_S' depart='177' departLane='random' departSpeed='10' />
<vehicle id='S_N_74' type='standard_car' route='S_N' depart='181' departLane='random' departSpeed='10' />
<vehicle id='S_N_75' type='standard_car' route='S_N' depart='184' departLane='random' departSpeed='10' />
<vehicle id='E_W_76' type='standard_car' route='E_W' depart='209' departLane='random' departSpeed='10' />
<vehicle id='E_W_77' type='standard_car' route='E_W' depart='213' departLane='random' departSpeed='10' />
<vehicle id='E_W_78' type='standard_car' route='E_W' depart='215' departLane='random' departSpeed='10' />
<vehicle id='W_E_79' type='standard_car' route='W_E' depart='220' departLane='random' departSpeed='10' />
<vehicle id='E_W_80' type='standard_car' route='E_W' depart='222' departLane='random' departSpeed='10' />
<vehicle id='E_W_81' type='standard_car' route='E_W' depart='222' departLane='random' departSpeed='10' />
<vehicle id='W_E_82' type='standard_car' route='W_E' depart='223' departLane='random' departSpeed='10' />
<vehicle id='E_W_83' type='standard_car' route='E_W' depart='225' departLane='random' departSpeed='10' />
<vehicle id='S_N_84' type='standard_car' route='S_N' depart='226' departLane='random' departSpeed='10' />
<vehicle id='W_E_85' type='standard_car' route='W_E' depart='226' departLane='random' departSpeed='10' />
<vehicle id='E_W_86' type='standard_car' route='E_W' depart='228' departLane='random' departSpeed='10' />
<vehicle id='E_S_87' type='standard_car' route='E_S' depart='228' departLane='random' departSpeed='10' />
<vehicle id='W_E_88' type='standard_car' route='W_E' depart='229' departLane='random' departSpeed='10' />
<vehicle id='S_N_89' type='standard_car' route='S_N' depart='229' departLane='random' departSpeed='10' />
<vehicle id='W_E_90' type='standard_car' route='W_E' depart='230' departLane='random' departSpeed='10' />
<vehicle id='W_N_91' type='standard_car' route='W_N' depart='230' departLane='random' departSpeed='10' />
<vehicle id='S_N_92' type='standard_car' route='S_N' depart='231' departLane='random' departSpeed='10' />
<vehicle id='S_N_93' type='standard_car' route='S_N' depart='232' departLane='random' departSpeed='10' />
<vehicle id='W_E_94' type='standard_car' route='W_E' depart='232' departLane='random' departSpeed='10' />
<vehicle id='W_E_95' type='standard_car' route='W_E' depart='234' departLane='random' departSpeed='10' />
<vehicle id='S_N_96' type='standard_car' route='S_N' depart='235' departLane='random' departSpeed='10' />
<vehicle id='S_N_97' type='standard_car' route='S_N' depart='237' departLane='random' departSpeed='10' />
<vehicle id='S_W_98' type='standard_car' route='S_W' depart='237' departLane='random' departSpeed='10' />
<vehicle id='S_N_99' type='standard_car' route='S_N' depart='237' departLane='random' departSpeed='10' />
<vehicle id='W_E_100' type='standard_car' route='W_E' depart='237' departLane='random' departSpeed='10' />
<vehicle id='S_N_101' type='standard_car' route='S_N' depart='238' departLane='random' departSpeed='10' />
<vehicle id='S_N_102' type='standard_car' route='S_N' depart='239' departLane='random' departSpeed='10' />
<vehicle id='W_E_103' type='standard_car' route='W_E' depart='241' departLane='random' departSpeed='10' />
<vehicle id='S_N_104' type='standard_car' route='S_N' depart='246' departLane='random' departSpeed='10' />
<vehicle id='S_N_105' type='standard_car' route='S_N' depart='248' departLane='random' departSpeed='10' />
<vehicle id='S_N_106' type='standard_car' route='S_N' depart='262' departLane='random' departSpeed='10' />
<vehicle id='S_W_107' type='standard_car' route='S_W' depart='262' departLane='random' departSpeed='10' />
<vehicle id='E_W_108' type='standard_car' route='E_W' depart='266' departLane='random' departSpeed='10' />
<vehicle id='E_W_109' type='standard_car' route='E_W' depart='271' departLane='random' departSpeed='10' />
<vehicle id='E_S_110' type='standard_car' route='E_S' depart='271' departLane='random' departSpeed='10' />
<vehicle id='N_S_111' type='standard_car' route='N_S' depart='280' departLane='random' departSpeed='10' />
<vehicle id='S_N_112' type='standard_car' route='S_N' depart='280' departLane='random' departSpeed='10' />
<vehicle id='W_E_113' type='standard_car' route='W_E' depart='284' departLane='random' departSpeed='10' />
<vehicle id='N_S_114' type='standard_car' route='N_S' depart='285' departLane='random' departSpeed='10' />
<vehicle id='E_W_115' type='standard_car' route='E_W' depart='285' departLane='random' departSpeed='10' />
<vehicle id='W_E_116' type='standard_car' route='W_E' depart='289' departLane='random' departSpeed='10' />
<vehicle id='W_E_117' type='standard_car' route='W_E' depart='291' departLane='random' departSpeed='10' />
<vehicle id='W_E_118' type='standard_car' route='W_E' depart='292' departLane='random' departSpeed='10' />
<vehicle id='W_N_119' type='standard_car' route='W_N' depart='292' departLane='random' departSpeed='10' />
<vehicle id='S_N_120' type='standard_car' route='S_N' depart='295' departLane='random' departSpeed='10' />
<vehicle id='S_W_121' type='standard_car' route='S_W' depart='295' departLane='random' departSpeed='10' />
<vehicle id='E_W_122' type='standard_car' route='E_W' depart='295' departLane='random' departSpeed='10' />
<vehicle id='S_N_123' type='standard_car' route='S_N' depart='297' departLane='random' departSpeed='10' />
<vehicle id='W_E_124' type='standard_car' route='W_E' depart='298' departLane='random' departSpeed='10' />
<vehicle id='S_N_125' type='standard_car' route='S_N' depart='298' departLane='random' departSpeed='10' />
<vehicle id='N_S_126' type='standard_car' route='N_S' depart='304' departLane='random' departSpeed='10' />
<vehicle id='W_E_127' type='standard_car' route='W_E' depart='305' departLane='random' departSpeed='10' />
<vehicle id='W_N_128' type='standard_car' route='W_N' depart='305' departLane='random' departSpeed='10' />
<vehicle id='S_N_129' type='standard_car' route='S_N' depart='307' departLane='random' departSpeed='10' />
<vehicle id='N_S_130' type='standard_car' route='N_S' depart='308' departLane='random' departSpeed='10' />
<vehicle id='N_S_131' type='standard_car' route='N_S' depart='309' departLane='random' departSpeed='10' />
<vehicle id='S_N_132' type='standard_car' route='S_N' depart='315' departLane='random' departSpeed='10' />
<vehicle id='N_S_133' type='standard_car' route='N_S' depart='315' departLane='random' departSpeed='10' />
<vehicle id='S_N_134' type='standard_car' route='S_N' depart='317' departLane='random' departSpeed='10' />
<vehicle id='S_N_135' type='standard_car' route='S_N' depart='323' departLane='random' departSpeed='10' />
<vehicle id='W_E_136' type='standard_car' route='W_E' depart='328' departLane='random' departSpeed='10' />
<vehicle id='S_N_137' type='standard_car' route='S_N' depart='338' departLane='random' departSpeed='10' />
<vehicle id='S_W_138' type='standard_car' route='S_W' depart='338' departLane='random' departSpeed='10' />
<vehicle id='S_N_139' type='standard_car' route='S_N' depart='340' departLane='random' departSpeed='10' />
<vehicle id='S_W_140' type='standard_car' route='S_W' depart='340' departLane='random' departSpeed='10' />
<vehicle id='N_S_141' type='standard_car' route='N_S' depart='341' departLane='random' departSpeed='10' />
<vehicle id='N_S_142' type='standard_car' route='N_S' depart='341' departLane='random' departSpeed='10' />
<vehicle id='S_N_143' type='standard_car' route='S_N' depart='343' departLane='random' departSpeed='10' />
<vehicle id='E_W_144' type='standard_car' route='E_W' depart='346' departLane='random' departSpeed='10' />
<vehicle id='S_N_145' type='standard_car' route='S_N' depart='358' departLane='random' departSpeed='10' />
<vehicle id='N_S_146' type='standard_car' route='N_S' depart='365' departLane='random' departSpeed='10' />
<vehicle id='N_S_147' type='standard_car' route='N_S' depart='370' departLane='random' departSpeed='10' />
<vehicle id='W_E_148' type='standard_car' route='W_E' depart='373' departLane='random' departSpeed='10' />
<vehicle id='E_W_149' type='standard_car' route='E_W' depart='382' departLane='random' departSpeed='10' />
<vehicle id='E_W_150' type='standard_car' route='E_W' depart='384' departLane='random' departSpeed='10' />
<vehicle id='E_W_151' type='standard_car' route='E_W' depart='386' departLane='random' departSpeed='10' />
<vehicle id='E_W_152' type='standard_car' route='E_W' depart='391' departLane='random' departSpeed='10' />
<vehicle id='W_E_153' type='standard_car' route='W_E' depart='395' departLane='random' departSpeed='10' />
<vehicle id='S_N_154' type='standard_car' route='S_N' depart='396' departLane='random' departSpeed='10' />
<vehicle id='S_N_155' type='standard_car' route='S_N' depart='397' departLane='random' departSpeed='10' />
<vehicle id='W_E_156' type='standard_car' route='W_E' depart='398' departLane='random' departSpeed='10' />
<vehicle id='S_N_157' type='standard_car' route='S_N' depart='399' departLane='random' departSpeed='10' />
<vehicle id='S_W_158' type='standard_car' route='S_W' depart='399' departLane='random' departSpeed='10' />
<vehicle id='W_E_159' type='standard_car' route='W_E' depart='400' departLane='random' departSpeed='10' />
<vehicle id='W_N_160' type='standard_car' route='W_N' depart='400' departLane='random' departSpeed='10' />
<vehicle id='E_W_161' type='standard_car' route='E_W' depart='408' departLane='random' departSpeed='10' />
<vehicle id='E_W_162' type='standard_car' route='E_W' depart='410' departLane='random' departSpeed='10' />
<vehicle id='S_N_163' type='standard_car' route='S_N' depart='413' departLane='random' departSpeed='10' />
<vehicle id='W_E_164' type='standard_car' route='W_E' depart='415' departLane='random' departSpeed='10' />
<vehicle id='S_N_165' type='standard_car' route='S_N' depart='418' departLane='random' departSpeed='10' />
<vehicle id='E_W_166' type='standard_car' route='E_W' depart='420' departLane='random' departSpeed='10' />
<vehicle id='W_E_167' type='standard_car' route='W_E' depart='421' departLane='random' departSpeed='10' />
<vehicle id='E_W_168' type='standard_car' route='E_W' depart='430' departLane='random' departSpeed='10' />
<vehicle id='N_S_169' type='standard_car' route='N_S' depart='435' departLane='random' departSpeed='10' />
<vehicle id='N_E_170' type='standard_car' route='N_E' depart='435' departLane='random' departSpeed='10' />
<vehicle id='N_S_171' type='standard_car' route='N_S' depart='437' departLane='random' departSpeed='10' />
<vehicle id='N_S_172' type='standard_car' route='N_S' depart='438' departLane='random' departSpeed='10' />
<vehicle id='N_E_173' type='standard_car' route='N_E' depart='438' departLane='random' departSpeed='10' />
<vehicle id='E_W_174' type='standard_car' route='E_W' depart='441' departLane='random' departSpeed='10' />
<vehicle id='W_E_175' type='standard_car' route='W_E' depart='444' departLane='random' departSpeed='10' />
<vehicle id='N_S_176' type='standard_car' route='N_S' depart='444' departLane='random' departSpeed='10' />
<vehicle id='N_S_177' type='standard_car' route='N_S' depart='446' departLane='random' departSpeed='10' />
<vehicle id='S_N_178' type='standard_car' route='S_N' depart='448' departLane='random' departSpeed='10' />
<vehicle id='E_W_179' type='standard_car' route='E_W' depart='449' departLane='random' departSpeed='10' />
<vehicle id='W_E_180' type='standard_car' route='W_E' depart='452' departLane='random' departSpeed='10' />
<vehicle id='N_S_181' type='standard_car' route='N_S' depart='453' departLane='random' departSpeed='10' />
<vehicle id='S_N_182' type='standard_car' route='S_N' depart='453' departLane='random' departSpeed='10' />
<vehicle id='E_W_183' type='standard_car' route='E_W' depart='460' departLane='random' departSpeed='10' />
<vehicle id='S_N_184' type='standard_car' route='S_N' depart='463' departLane='random' departSpeed='10' />
<vehicle id='S_W_185' type='standard_car' route='S_W' depart='463' departLane='random' departSpeed='10' />
<vehicle id='N_S_186' type='standard_car' route='N_S' depart='464' departLane='random' departSpeed='10' />
<vehicle id='W_E_187' type='standard_car' route='W_E' depart='472' departLane='random' departSpeed='10' />
<vehicle id='N_S_188' type='standard_car' route='N_S' depart='473' departLane='random' departSpeed='10' />
<vehicle id='N_S_189' type='standard_car' route='N_S' depart='474' departLane='random' departSpeed='10' />
<vehicle id='N_E_190' type='standard_car' route='N_E' depart='474' departLane='random' departSpeed='10' />
<vehicle id='W_E_191' type='standard_car' route='W_E' depart='475' departLane='random' departSpeed='10' />
<vehicle id='S_N_192' type='standard_car' route='S_N' depart='476' departLane='random' departSpeed='10' />
<vehicle id='N_S_193' type='standard_car' route='N_S' depart='477' departLane='random' departSpeed='10' />
<vehicle id='N_S_194' type='standard_car' route='N_S' depart='479' departLane='random' departSpeed='10' />
<vehicle id='N_S_195' type='standard_car' route='N_S' depart='481' departLane='random' departSpeed='10' />
<vehicle id='N_S_196' type='standard_car' route='N_S' depart='484' departLane='random' departSpeed='10' />
<vehicle id='N_E_197' type='standard_car' route='N_E' depart='484' departLane='random' departSpeed='10' />
<vehicle id='S_N_198' type='standard_car' route='S_N' depart='485' departLane='random' departSpeed='10' />
<vehicle id='S_W_199' type='standard_car' route='S_W' depart='485' departLane='random' departSpeed='10' />
<vehicle id='S_N_200' type='standard_car' route='S_N' depart='486' departLane='random' departSpeed='10' />
<vehicle id='S_W_201' type='standard_car' route='S_W' depart='486' departLane='random' departSpeed='10' />
<vehicle id='S_N_202' type='standard_car' route='S_N' depart='492' departLane='random' departSpeed='10' />
<vehicle id='S_W_203' type='standard_car' route='S_W' depart='492' departLane='random' departSpeed='10' />
<vehicle id='S_N_204' type='standard_car' route='S_N' depart='493' departLane='random' departSpeed='10' />
<vehicle id='W_E_205' type='standard_car' route='W_E' depart='495' departLane='random' departSpeed='10' />
<vehicle id='N_S_206' type='standard_car' route='N_S' depart='497' departLane='random' departSpeed='10' />
<vehicle id='N_S_207' type='standard_car' route='N_S' depart='498' departLane='random' departSpeed='10' />
<vehicle id='W_E_208' type='standard_car' route='W_E' depart='499' departLane='random' departSpeed='10' />
<vehicle id='S_N_209' type='standard_car' route='S_N' depart='499' departLane='random' departSpeed='10' />
<vehicle id='S_N_210' type='standard_car' route='S_N' depart='501' departLane='random' departSpeed='10' />
<vehicle id='S_N_211' type='standard_car' route='S_N' depart='503' departLane='random' departSpeed='10' />
<vehicle id='S_N_212' type='standard_car' route='S_N' depart='504' departLane='random' departSpeed='10' />
<vehicle id='S_N_213' type='standard_car' route='S_N' depart='507' departLane='random' departSpeed='10' />
<vehicle id='S_W_214' type='standard_car' route='S_W' depart='507' departLane='random' departSpeed='10' />
<vehicle id='S_N_215' type='standard_car' route='S_N' depart='508' departLane='random' departSpeed='10' />
<vehicle id='N_S_216' type='standard_car' route='N_S' depart='516' departLane='random' departSpeed='10' />
<vehicle id='E_W_217' type='standard_car' route='E_W' depart='537' departLane='random' departSpeed='10' />
<vehicle id='E_W_218' type='standard_car' route='E_W' depart='538' departLane='random' departSpeed='10' />
<vehicle id='E_W_219' type='standard_car' route='E_W' depart='540' departLane='random' departSpeed='10' />
<vehicle id='E_W_220' type='standard_car' route='E_W' depart='541' departLane='random' departSpeed='10' />
<vehicle id='E_W_221' type='standard_car' route='E_W' depart='542' departLane='random' departSpeed='10' />
<vehicle id='W_E_222' type='standard_car' route='W_E' depart='542' departLane='random' departSpeed='10' />
<vehicle id='E_W_223' type='standard_car' route='E_W' depart='543' departLane='random' departSpeed='10' />
<vehicle id='E_W_224' type='standard_car' route='E_W' depart='545' departLane='random' departSpeed='10' />
<vehicle id='W_E_225' type='standard_car' route='W_E' depart='546' departLane='random' departSpeed='10' />
<vehicle id='W_N_226' type='standard_car' route='W_N' depart='546' departLane='random' departSpeed='10' />
<vehicle id='W_E_227' type='standard_car' route='W_E' depart='547' departLane='random' departSpeed='10' />
<vehicle id='E_W_228' type='standard_car' route='E_W' depart='548' departLane='random' departSpeed='10' />
<vehicle id='W_E_229' type='standard_car' route='W_E' depart='552' departLane='random' departSpeed='10' />
<vehicle id='W_E_230' type='standard_car' route='W_E' depart='555' departLane='random' departSpeed='10' />
<vehicle id='W_N_231' type='standard_car' route='W_N' depart='555' departLane='random' departSpeed='10' />
<vehicle id='W_E_232' type='standard_car' route='W_E' depart='556' departLane='random' departSpeed='10' />
<vehicle id='E_W_233' type='standard_car' route='E_W' depart='557' departLane='random' departSpeed='10' />
<vehicle id='W_E_234' type='standard_car' route='W_E' depart='559' departLane='random' departSpeed='10' />
<vehicle id='S_N_235' type='standard_car' route='S_N' depart='560' departLane='random' departSpeed='10' />
<vehicle id='W_E_236' type='standard_car' route='W_E' depart='562' departLane='random' departSpeed='10' />
<vehicle id='S_N_237' type='standard_car' route='S_N' depart='564' departLane='random' departSpeed='10' />
<vehicle id='E_W_238' type='standard_car' route='E_W' depart='564' departLane='random' departSpeed='10' />
<vehicle id='W_E_239' type='standard_car' route='W_E' depart='564' departLane='random' departSpeed='10' />
<vehicle id='S_N_240' type='standard_car' route='S_N' depart='566' departLane='random' departSpeed='10' />
<vehicle id='S_N_241' type='standard_car' route='S_N' depart='566' departLane='random' departSpeed='10' />
<vehicle id='S_N_242' type='standard_car' route='S_N' depart='567' departLane='random' departSpeed='10' />
<vehicle id='E_W_243' type='standard_car' route='E_W' depart='568' departLane='random' departSpeed='10' />
<vehicle id='E_W_244' type='standard_car' route='E_W' depart='569' departLane='random' departSpeed='10' />
<vehicle id='S_N_245' type='standard_car' route='S_N' depart='570' departLane='random' departSpeed='10' />
<vehicle id='E_W_246' type='standard_car' route='E_W' depart='572' departLane='random' departSpeed='10' />
<vehicle id='S_N_247' type='standard_car' route='S_N' depart='573' departLane='random' departSpeed='10' />
<vehicle id='E_W_248' type='standard_car' route='E_W' depart='573' departLane='random' departSpeed='10' />
<vehicle id='W_E_249' type='standard_car' route='W_E' depart='574' departLane='random' departSpeed='10' />
<vehicle id='S_N_250' type='standard_car' route='S_N' depart='575' departLane='random' departSpeed='10' />
<vehicle id='S_W_251' type='standard_car' route='S_W' depart='575' departLane='random' departSpeed='10' />
<vehicle id='E_W_252' type='standard_car' route='E_W' depart='578' departLane='random' departSpeed='10' />
<vehicle id='E_W_253' type='standard_car' route='E_W' depart='580' departLane='random' departSpeed='10' />
<vehicle id='E_W_254' type='standard_car' route='E_W' depart='580' departLane='random' departSpeed='10' />
<vehicle id='E_S_255' type='standard_car' route='E_S' depart='580' departLane='random' departSpeed='10' />
<vehicle id='S_N_256' type='standard_car' route='S_N' depart='587' departLane='random' departSpeed='10' />
<vehicle id='S_W_257' type='standard_car' route='S_W' depart='587' departLane='random' departSpeed='10' />
<vehicle id='S_N_258' type='standard_car' route='S_N' depart='590' departLane='random' departSpeed='10' />
<vehicle id='S_N_259' type='standard_car' route='S_N' depart='594' departLane='random' departSpeed='10' />
<vehicle id='E_W_260' type='standard_car' route='E_W' depart='596' departLane='random' departSpeed='10' />
<vehicle id='E_S_261' type='standard_car' route='E_S' depart='596' departLane='random' departSpeed='10' />
<vehicle id='S_N_262' type='standard_car' route='S_N' depart='597' departLane='random' departSpeed='10' />
<vehicle id='S_W_263' type='standard_car' route='S_W' depart='597' departLane='random' departSpeed='10' />
<vehicle id='N_S_264' type='standard_car' route='N_S' depart='602' departLane='random' departSpeed='10' />
<vehicle id='N_S_265' type='standard_car' route='N_S' depart='603' departLane='random' departSpeed='10' />
<vehicle id='S_N_266' type='standard_car' route='S_N' depart='604' departLane='random' departSpeed='10' />
<vehicle id='N_S_267' type='standard_car' route='N_S' depart='611' departLane='random' departSpeed='10' />
<vehicle id='S_N_268' type='standard_car' route='S_N' depart='615' departLane='random' departSpeed='10' />
<vehicle id='W_E_269' type='standard_car' route='W_E' depart='616' departLane='random' departSpeed='10' />
<vehicle id='S_N_270' type='standard_car' route='S_N' depart='616' departLane='random' departSpeed='10' />
<vehicle id='S_W_271' type='standard_car' route='S_W' depart='616' departLane='random' departSpeed='10' />
<vehicle id='W_E_272' type='standard_car' route='W_E' depart='618' departLane='random' departSpeed='10' />
<vehicle id='S_N_273' type='standard_car' route='S_N' depart='622' departLane='random' departSpeed='10' />
<vehicle id='E_W_274' type='standard_car' route='E_W' depart='624' departLane='random' departSpeed='10' />