<routes>
    <vType id="standard_car" length="5.0" maxSpeed="11.11" minGap="2.5" accel="2.0" decel="4.5" />
    <route id="N_S" edges="road_1_2_3 road_1_1_3"/>
    <route id="N_E" edges="road_1_2_3 road_1_1_0"/>
    <route id="N_W" edges="road_1_2_3 road_1_1_2"/>
    <route id="S_W" edges="road_1_0_1 road_1_1_2"/>
    <route id="S_E" edges="road_1_0_1 road_1_1_0"/>
    <route id="S_N" edges="road_1_0_1 road_1_1_1"/>

    <route id="W_E" edges="road_0_1_0 road_1_1_0"/>
    <route id="W_N" edges="road_0_1_0 road_1_1_1"/>
    <route id="W_S" edges="road_0_1_0 road_1_1_3"/>
    <route id="E_N" edges="road_2_1_2 road_1_1_1"/>
    <route id="E_S" edges="road_2_1_2 road_1_1_3"/>
    <route id="E_W" edges="road_2_1_2 road_1_1_2"/>
            
    <vehicle id='S_E_0' type='standard_car' route='S_E' depart='34.0' departLane='random' departSpeed='10' />
    <vehicle id='N_W_1' type='standard_car' route='N_W' depart='53.0' departLane='random' departSpeed='10' />
    <vehicle id='E_N_2' type='standard_car' route='E_N' depart='63.0' departLane='random' departSpeed='10' />
    <vehicle id='E_N_3' type='standard_car' route='E_N' depart='70.0' departLane='random' departSpeed='10' />
    <vehicle id='N_S_4' type='standard_car' route='N_S' depart='85.0' departLane='random' departSpeed='10' />
    <vehicle id='E_N_5' type='standard_car' route='E_N' depart='103.0' departLane='random' departSpeed='10' />
    <vehicle id='N_S_6' type='standard_car' route='N_S' depart='106.0' departLane='random' departSpeed='10' />
    <vehicle id='W_E_7' type='standard_car' route='W_E' depart='109.0' departLane='random' departSpeed='10' />
    <vehicle id='E_W_8' type='standard_car' route='E_W' depart='118.0' departLane='random' departSpeed='10' />
    <vehicle id='N_W_9' type='standard_car' route='N_W' depart='129.0' departLane='random' departSpeed='10' />
    <vehicle id='S_N_10' type='standard_car' route='S_N' depart='147.0' departLane='random' departSpeed='10' />
    <vehicle id='N_W_11' type='standard_car' route='N_W' depart='160.0' departLane='random' departSpeed='10' />
    <vehicle id='S_E_12' type='standard_car' route='S_E' depart='161.0' departLane='random' departSpeed='10' />
    <vehicle id='E_W_13' type='standard_car' route='E_W' depart='174.0' departLane='random' departSpeed='10' />
    <vehicle id='W_E_14' type='standard_car' route='W_E' depart='180.0' departLane='random' departSpeed='10' />
    <vehicle id='N_S_15' type='standard_car' route='N_S' depart='181.0' departLane='random' departSpeed='10' />
    <vehicle id='S_N_16' type='standard_car' route='S_N' depart='183.0' departLane='random' departSpeed='10' />
    <vehicle id='S_E_17' type='standard_car' route='S_E' depart='188.0' departLane='random' departSpeed='10' />
    <vehicle id='W_S_18' type='standard_car' route='W_S' depart='192.0' departLane='random' departSpeed='10' />
    <vehicle id='E_W_19' type='standard_car' route='E_W' depart='193.0' departLane='random' departSpeed='10' />
    <vehicle id='N_S_20' type='standard_car' route='N_S' depart='196.0' departLane='random' departSpeed='10' />
    <vehicle id='W_E_21' type='standard_car' route='W_E' depart='201.0' departLane='random' departSpeed='10' />
    <vehicle id='S_E_22' type='standard_car' route='S_E' depart='202.0' departLane='random' departSpeed='10' />
    <vehicle id='S_N_23' type='standard_car' route='S_N' depart='204.0' departLane='random' departSpeed='10' />
    <vehicle id='N_S_24' type='standard_car' route='N_S' depart='204.0' departLane='random' departSpeed='10' />
    <vehicle id='S_E_25' type='standard_car' route='S_E' depart='205.0' departLane='random' departSpeed='10' />
    <vehicle id='S_N_26' type='standard_car' route='S_N' depart='205.0' departLane='random' departSpeed='10' />
    <vehicle id='E_W_27' type='standard_car' route='E_W' depart='205.0' departLane='random' departSpeed='10' />
    <vehicle id='N_W_28' type='standard_car' route='N_W' depart='207.0' departLane='random' departSpeed='10' />
    <vehicle id='W_E_29' type='standard_car' route='W_E' depart='209.0' departLane='random' departSpeed='10' />
    <vehicle id='E_W_30' type='standard_car' route='E_W' depart='218.0' departLane='random' departSpeed='10' />
    <vehicle id='N_S_31' type='standard_car' route='N_S' depart='220.0' departLane='random' departSpeed='10' />
    <vehicle id='W_E_32' type='standard_car' route='W_E' depart='228.0' departLane='random' departSpeed='10' />
    <vehicle id='N_S_33' type='standard_car' route='N_S' depart='228.0' departLane='random' departSpeed='10' />
    <vehicle id='N_W_34' type='standard_car' route='N_W' depart='230.0' departLane='random' departSpeed='10' />
    <vehicle id='N_S_35' type='standard_car' route='N_S' depart='238.0' departLane='random' departSpeed='10' />
    <vehicle id='N_S_36' type='standard_car' route='N_S' depart='240.0' departLane='random' departSpeed='10' />
    <vehicle id='W_E_37' type='standard_car' route='W_E' depart='240.0' departLane='random' departSpeed='10' />
    <vehicle id='W_S_38' type='standard_car' route='W_S' depart='253.0' departLane='random' departSpeed='10' />
    <vehicle id='S_N_39' type='standard_car' route='S_N' depart='257.0' departLane='random' departSpeed='10' />
    <vehicle id='E_W_40' type='standard_car' route='E_W' depart='276.0' departLane='random' departSpeed='10' />
    <vehicle id='S_N_41' type='standard_car' route='S_N' depart='277.0' departLane='random' departSpeed='10' />
    <vehicle id='W_E_42' type='standard_car' route='W_E' depart='277.0' departLane='random' departSpeed='10' />
    <vehicle id='S_N_43' type='standard_car' route='S_N' depart='282.0' departLane='random' departSpeed='10' />
    <vehicle id='S_N_44' type='standard_car' route='S_N' depart='282.0' departLane='random' departSpeed='10' />
    <vehicle id='N_W_45' type='standard_car' route='N_W' depart='283.0' departLane='random' departSpeed='10' />
    <vehicle id='W_S_46' type='standard_car' route='W_S' depart='284.0' departLane='random' departSpeed='10' />
    <vehicle id='S_N_47' type='standard_car' route='S_N' depart='285.0' departLane='random' departSpeed='10' />
    <vehicle id='E_N_48' type='standard_car' route='E_N' depart='286.0' departLane='random' departSpeed='10' />
    <vehicle id='E_N_49' type='standard_car' route='E_N' depart='287.0' departLane='random' departSpeed='10' />
    <vehicle id='E_W_50' type='standard_car' route='E_W' depart='288.0' departLane='random' departSpeed='10' />
    <vehicle id='W_E_51' type='standard_car' route='W_E' depart='291.0' departLane='random' departSpeed='10' />
    <vehicle id='W_S_52' type='standard_car' route='W_S' depart='294.0' departLane='random' departSpeed='10' />
    <vehicle id='E_W_53' type='standard_car' route='E_W' depart='298.0' departLane='random' departSpeed='10' />
    <vehicle id='W_E_54' type='standard_car' route='W_E' depart='301.0' departLane='random' departSpeed='10' />
    <vehicle id='S_N_55' type='standard_car' route='S_N' depart='301.0' departLane='random' departSpeed='10' />
    <vehicle id='W_S_56' type='standard_car' route='W_S' depart='303.0' departLane='random' departSpeed='10' />
    <vehicle id='W_E_57' type='standard_car' route='W_E' depart='306.0' departLane='random' departSpeed='10' />
    <vehicle id='W_S_58' type='standard_car' route='W_S' depart='306.0' departLane='random' departSpeed='10' />
    <vehicle id='E_W_59' type='standard_car' route='E_W' depart='308.0' departLane='random' departSpeed='10' />
    <vehicle id='S_N_60' type='standard_car' route='S_N' depart='312.0' departLane='random' departSpeed='10' />
    <vehicle id='W_S_61' type='standard_car' route='W_S' depart='313.0' departLane='random' departSpeed='10' />
    <vehicle id='W_S_62' type='standard_car' route='W_S' depart='314.0' departLane='random' departSpeed='10' />
    <vehicle id='N_S_63' type='standard_car' route='N_S' depart='314.0' departLane='random' departSpeed='10' />
    <vehicle id='S_N_64' type='standard_car' route='S_N' depart='317.0' departLane='random' departSpeed='10' />
    <vehicle id='E_W_65' type='standard_car' route='E_W' depart='317.0' departLane='random' departSpeed='10' />
    <vehicle id='W_E_66' type='standard_car' route='W_E' depart='321.0' departLane='random' departSpeed='10' />
    <vehicle id='N_W_67' type='standard_car' route='N_W' depart='322.0' departLane='random' departSpeed='10' />
    <vehicle id='E_N_68' type='standard_car' route='E_N' depart='325.0' departLane='random' departSpeed='10' />
    <vehicle id='E_N_69' type='standard_car' route='E_N' depart='329.0' departLane='random' departSpeed='10' />
    <vehicle id='E_W_70' type='standard_car' route='E_W' depart='330.0' departLane='random' departSpeed='10' />
    <vehicle id='W_E_71' type='standard_car' route='W_E' depart='330.0' departLane='random' departSpeed='10' />
    <vehicle id='N_S_72' type='standard_car' route='N_S' depart='331.0' departLane='random' departSpeed='10' />
    <vehicle id='N_S_73' type='standard_car' route='N_S' depart='331.0' departLane='random' departSpeed='10' />
    <vehicle id='N_S_74' type='standard_car' route='N_S' depart='332.0' departLane='random' departSpeed='10' />
    <vehicle id='E_N_75' type='standard_car' route='E_N' depart='332.0' departLane='random' departSpeed='10' />
    <vehicle id='S_E_76' type='standard_car' route='S_E' depart='333.0' departLane='random' departSpeed='10' />
    <vehicle id='W_S_77' type='standard_car' route='W_S' depart='334.0' departLane='random' departSpeed='10' />
    <vehicle id='S_E_78' type='standard_car' route='S_E' depart='335.0' departLane='random' departSpeed='10' />
    <vehicle id='S_N_79' type='standard_car' route='S_N' depart='336.0' departLane='random' departSpeed='10' />
    <vehicle id='N_S_80' type='standard_car' route='N_S' depart='336.0' departLane='random' departSpeed='10' />
    <vehicle id='N_S_81' type='standard_car' route='N_S' depart='337.0' departLane='random' departSpeed='10' />
    <vehicle id='W_E_82' type='standard_car' route='W_E' depart='338.0' departLane='random' departSpeed='10' />
    <vehicle id='W_S_83' type='standard_car' route='W_S' depart='342.0' departLane='random' departSpeed='10' />
    <vehicle id='W_E_84' type='standard_car' route='W_E' depart='342.0' departLane='random' departSpeed='10' />
    <vehicle id='N_S_85' type='standard_car' route='N_S' depart='343.0' departLane='random' departSpeed='10' />
    <vehicle id='W_E_86' type='standard_car' route='W_E' depart='348.0' departLane='random' departSpeed='10' />
    <vehicle id='N_S_87' type='standard_car' route='N_S' depart='348.0' departLane='random' departSpeed='10' />
    <vehicle id='W_S_88' type='standard_car' route='W_S' depart='354.0' departLane='random' departSpeed='10' />
    <vehicle id='N_S_89' type='standard_car' route='N_S' depart='357.0' departLane='random' departSpeed='10' />
    <vehicle id='W_E_90' type='standard_car' route='W_E' depart='357.0' departLane='random' departSpeed='10' />
    <vehicle id='W_E_91' type='standard_car' route='W_E' depart='360.0' departLane='random' departSpeed='10' />
    <vehicle id='S_N_92' type='standard_car' route='S_N' depart='361.0' departLane='random' departSpeed='10' />
    <vehicle id='S_E_93' type='standard_car' route='S_E' depart='365.0' departLane='random' departSpeed='10' />
    <vehicle id='N_W_94' type='standard_car' route='N_W' depart='366.0' departLane='random' departSpeed='10' />
    <vehicle id='S_E_95' type='standard_car' route='S_E' depart='367.0' departLane='random' departSpeed='10' />
    <vehicle id='S_N_96' type='standard_car' route='S_N' depart='368.0' departLane='random' departSpeed='10' />
    <vehicle id='N_S_97' type='standard_car' route='N_S' depart='370.0' departLane='random' departSpeed='10' />
    <vehicle id='N_S_98' type='standard_car' route='N_S' depart='370.0' departLane='random' departSpeed='10' />
    <vehicle id='W_E_99' type='standard_car' route='W_E' depart='370.0' departLane='random' departSpeed='10' />
    <vehicle id='N_S_100' type='standard_car' route='N_S' depart='375.0' departLane='random' departSpeed='10' />
    <vehicle id='E_W_101' type='standard_car' route='E_W' depart='375.0' departLane='random' departSpeed='10' />
    <vehicle id='W_S_102' type='standard_car' route='W_S' depart='376.0' departLane='random' departSpeed='10' />
    <vehicle id='W_S_103' type='standard_car' route='W_S' depart='385.0' departLane='random' departSpeed='10' />
    <vehicle id='N_W_104' type='standard_car' route='N_W' depart='385.0' departLane='random' departSpeed='10' />
    <vehicle id='S_N_105' type='standard_car' route='S_N' depart='387.0' departLane='random' departSpeed='10' />
    <vehicle id='N_S_106' type='standard_car' route='N_S' depart='391.0' departLane='random' departSpeed='10' />
    <vehicle id='W_S_107' type='standard_car' route='W_S' depart='394.0' departLane='random' departSpeed='10' />
    <vehicle id='E_W_108' type='standard_car' route='E_W' depart='394.0' departLane='random' departSpeed='10' />
    <vehicle id='N_W_109' type='standard_car' route='N_W' depart='403.0' departLane='random' departSpeed='10' />
    <vehicle id='S_N_110' type='standard_car' route='S_N' depart='409.0' departLane='random' departSpeed='10' />
    <vehicle id='N_S_111' type='standard_car' route='N_S' depart='409.0' departLane='random' departSpeed='10' />
    <vehicle id='E_W_112' type='standard_car' route='E_W' depart='409.0' departLane='random' departSpeed='10' />
    <vehicle id='N_S_113' type='standard_car' route='N_S' depart='409.0' departLane='random' departSpeed='10' />
    <vehicle id='E_N_114' type='standard_car' route='E_N' depart='409.0' departLane='random' departSpeed='10' />
    <vehicle id='N_W_115' type='standard_car' route='N_W' depart='412.0' departLane='random' departSpeed='10' />
    <vehicle id='S_N_116' type='standard_car' route='S_N' depart='421.0' departLane='random' departSpeed='10' />
    <vehicle id='S_E_117' type='standard_car' route='S_E' depart='421.0' departLane='random' departSpeed='10' />
    <vehicle id='W_S_118' type='standard_car' route='W_S' depart='423.0' departLane='random' departSpeed='10' />
    <vehicle id='E_W_119' type='standard_car' route='E_W' depart='428.0' departLane='random' departSpeed='10' />
    <vehicle id='W_E_120' type='standard_car' route='W_E' depart='429.0' departLane='random' departSpeed='10' />
    <vehicle id='S_E_121' type='standard_car' route='S_E' depart='430.0' departLane='random' departSpeed='10' />
    <vehicle id='N_W_122' type='standard_car' route='N_W' depart='430.0' departLane='random' departSpeed='10' />
    <vehicle id='S_N_123' type='standard_car' route='S_N' depart='432.0' departLane='random' departSpeed='10' />
    <vehicle id='W_S_124' type='standard_car' route='W_S' depart='432.0' departLane='random' departSpeed='10' />
    <vehicle id='W_S_125' type='standard_car' route='W_S' depart='432.0' departLane='random' departSpeed='10' />
    <vehicle id='E_W_126' type='standard_car' route='E_W' depart='433.0' departLane='random' departSpeed='10' />
    <vehicle id='N_W_127' type='standard_car' route='N_W' depart='433.0' departLane='random' departSpeed='10' />
    <vehicle id='S_N_128' type='standard_car' route='S_N' depart='439.0' departLane='random' departSpeed='10' />
    <vehicle id='E_N_129' type='standard_car' route='E_N' depart='439.0' departLane='random' departSpeed='10' />
    <vehicle id='N_S_130' type='standard_car' route='N_S' depart='440.0' departLane='random' departSpeed='10' />
    <vehicle id='W_E_131' type='standard_car' route='W_E' depart='441.0' departLane='random' departSpeed='10' />
    <vehicle id='W_S_132' type='standard_car' route='W_S' depart='441.0' departLane='random' departSpeed='10' />
    <vehicle id='E_N_133' type='standard_car' route='E_N' depart='446.0' departLane='random' departSpeed='10' />
    <vehicle id='W_E_134' type='standard_car' route='W_E' depart='447.0' departLane='random' departSpeed='10' />
    <vehicle id='E_N_135' type='standard_car' route='E_N' depart='448.0' departLane='random' departSpeed='10' />
    <vehicle id='N_W_136' type='standard_car' route='N_W' depart='450.0' departLane='random' departSpeed='10' />
    <vehicle id='S_E_137' type='standard_car' route='S_E' depart='451.0' departLane='random' departSpeed='10' />
    <vehicle id='N_W_138' type='standard_car' route='N_W' depart='452.0' departLane='random' departSpeed='10' />
    <vehicle id='E_N_139' type='standard_car' route='E_N' depart='460.0' departLane='random' departSpeed='10' />
    <vehicle id='E_W_140' type='standard_car' route='E_W' depart='461.0' departLane='random' departSpeed='10' />
    <vehicle id='S_N_141' type='standard_car' route='S_N' depart='467.0' departLane='random' departSpeed='10' />
    <vehicle id='E_W_142' type='standard_car' route='E_W' depart='467.0' departLane='random' departSpeed='10' />
    <vehicle id='N_W_143' type='standard_car' route='N_W' depart='472.0' departLane='random' departSpeed='10' />
    <vehicle id='N_W_144' type='standard_car' route='N_W' depart='472.0' departLane='random' departSpeed='10' />
    <vehicle id='S_N_145' type='standard_car' route='S_N' depart='473.0' departLane='random' departSpeed='10' />
    <vehicle id='S_E_146' type='standard_car' route='S_E' depart='474.0' departLane='random' departSpeed='10' />
    <vehicle id='E_W_147' type='standard_car' route='E_W' depart='476.0' departLane='random' departSpeed='10' />
    <vehicle id='W_S_148' type='standard_car' route='W_S' depart='478.0' departLane='random' departSpeed='10' />
    <vehicle id='E_W_149' type='standard_car' route='E_W' depart='478.0' departLane='random' departSpeed='10' />
    <vehicle id='N_W_150' type='standard_car' route='N_W' depart='479.0' departLane='random' departSpeed='10' />
    <vehicle id='E_N_151' type='standard_car' route='E_N' depart='482.0' departLane='random' departSpeed='10' />
    <vehicle id='E_W_152' type='standard_car' route='E_W' depart='482.0' departLane='random' departSpeed='10' />
    <vehicle id='N_S_153' type='standard_car' route='N_S' depart='485.0' departLane='random' departSpeed='10' />
    <vehicle id='S_N_154' type='standard_car' route='S_N' depart='486.0' departLane='random' departSpeed='10' />
    <vehicle id='N_S_155' type='standard_car' route='N_S' depart='486.0' departLane='random' departSpeed='10' />
    <vehicle id='S_E_156' type='standard_car' route='S_E' depart='487.0' departLane='random' departSpeed='10' />
    <vehicle id='N_S_157' type='standard_car' route='N_S' depart='487.0' departLane='random' departSpeed='10' />
    <vehicle id='E_W_158' type='standard_car' route='E_W' depart='489.0' departLane='random' departSpeed='10' />
    <vehicle id='W_E_159' type='standard_car' route='W_E' depart='491.0' departLane='random' departSpeed='10' />
    <vehicle id='E_W_160' type='standard_car' route='E_W' depart='492.0' departLane='random' departSpeed='10' />
    <vehicle id='S_N_161' type='standard_car' route='S_N' depart='494.0' departLane='random' departSpeed='10' />
    <vehicle id='N_W_162' type='standard_car' route='N_W' depart='495.0' departLane='random' departSpeed='10' />
    <vehicle id='E_N_163' type='standard_car' route='E_N' depart='496.0' departLane='random' departSpeed='10' />
    <vehicle id='E_N_164' type='standard_car' route='E_N' depart='498.0' departLane='random' departSpeed='10' />
    <vehicle id='S_N_165' type='standard_car' route='S_N' depart='498.0' departLane='random' departSpeed='10' />
    <vehicle id='S_N_166' type='standard_car' route='S_N' depart='498.0' departLane='random' departSpeed='10' />
    <vehicle id='W_S_167' type='standard_car' route='W_S' depart='500.0' departLane='random' departSpeed='10' />
    <vehicle id='E_W_168' type='standard_car' route='E_W' depart='501.0' departLane='random' departSpeed='10' />
    <vehicle id='W_S_169' type='standard_car' route='W_S' depart='505.0' departLane='random' departSpeed='10' />
    <vehicle id='N_W_170' type='standard_car' route='N_W' depart='505.0' departLane='random' departSpeed='10' />
    <vehicle id='N_S_171' type='standard_car' route='N_S' depart='506.0' departLane='random' departSpeed='10' />
    <vehicle id='E_W_172' type='standard_car' route='E_W' depart='510.0' departLane='random' departSpeed='10' />
    <vehicle id='W_E_173' type='standard_car' route='W_E' depart='511.0' departLane='random' departSpeed='10' />
    <vehicle id='E_W_174' type='standard_car' route='E_W' depart='511.0' departLane='random' departSpeed='10' />
    <vehicle id='W_E_175' type='standard_car' route='W_E' depart='511.0' departLane='random' departSpeed='10' />
    <vehicle id='N_S_176' type='standard_car' route='N_S' depart='512.0' departLane='random' departSpeed='10' />
    <vehicle id='W_E_177' type='standard_car' route='W_E' depart='512.0' departLane='random' departSpeed='10' />
    <vehicle id='W_S_178' type='standard_car' route='W_S' depart='513.0' departLane='random' departSpeed='10' />
    <vehicle id='N_W_179' type='standard_car' route='N_W' depart='515.0' departLane='random' departSpeed='10' />
    <vehicle id='N_W_180' type='standard_car' route='N_W' depart='516.0' departLane='random' departSpeed='10' />
    <vehicle id='W_E_181' type='standard_car' route='W_E' depart='518.0' departLane='random' departSpeed='10' />
    <vehicle id='N_S_182' type='standard_car' route='N_S' depart='520.0' departLane='random' departSpeed='10' />
    <vehicle id='N_S_183' type='standard_car' route='N_S' depart='525.0' departLane='random' departSpeed='10' />
    <vehicle id='N_S_184' type='standard_car' route='N_S' depart='525.0' departLane='random' departSpeed='10' />
    <vehicle id='E_W_185' type='standard_car' route='E_W' depart='526.0' departLane='random' departSpeed='10' />
    <vehicle id='N_S_186' type='standard_car' route='N_S' depart='527.0' departLane='random' departSpeed='10' />
    <vehicle id='S_E_187' type='standard_car' route='S_E' depart='528.0' departLane='random' departSpeed='10' />
    <vehicle id='S_E_188' type='standard_car' route='S_E' depart='528.0' departLane='random' departSpeed='10' />
    <vehicle id='S_E_189' type='standard_car' route='S_E' depart='529.0' departLane='random' departSpeed='10' />
    <vehicle id='E_N_190' type='standard_car' route='E_N' depart='530.0' departLane='random' departSpeed='10' />
    <vehicle id='E_W_191' type='standard_car' route='E_W' depart='530.0' departLane='random' departSpeed='10' />
    <vehicle id='S_E_192' type='standard_car' route='S_E' depart='532.0' departLane='random' departSpeed='10' />
    <vehicle id='W_E_193' type='standard_car' route='W_E' depart='532.0' departLane='random' departSpeed='10' />
    <vehicle id='S_E_194' type='standard_car' route='S_E' depart='535.0' departLane='random' departSpeed='10' />
    <vehicle id='W_S_195' type='standard_car' route='W_S' depart='536.0' departLane='random' departSpeed='10' />
    <vehicle id='S_N_196' type='standard_car' route='S_N' depart='537.0' departLane='random' departSpeed='10' />
    <vehicle id='S_E_197' type='standard_car' route='S_E' depart='537.0' departLane='random' departSpeed='10' />
    <vehicle id='W_E_198' type='standard_car' route='W_E' depart='540.0' departLane='random' departSpeed='10' />
    <vehicle id='E_N_199' type='standard_car' route='E_N' depart='540.0' departLane='random' departSpeed='10' />
    <vehicle id='S_N_200' type='standard_car' route='S_N' depart='546.0' departLane='random' departSpeed='10' />
    <vehicle id='E_W_201' type='standard_car' route='E_W' depart='548.0' departLane='random' departSpeed='10' />
    <vehicle id='S_N_202' type='standard_car' route='S_N' depart='550.0' departLane='random' departSpeed='10' />
    <vehicle id='W_S_203' type='standard_car' route='W_S' depart='551.0' departLane='random' departSpeed='10' />
    <vehicle id='N_S_204' type='standard_car' route='N_S' depart='552.0' departLane='random' departSpeed='10' />
    <vehicle id='S_E_205' type='standard_car' route='S_E' depart='553.0' departLane='random' departSpeed='10' />
    <vehicle id='E_W_206' type='standard_car' route='E_W' depart='554.0' departLane='random' departSpeed='10' />
    <vehicle id='S_E_207' type='standard_car' route='S_E' depart='554.0' departLane='random' departSpeed='10' />
    <vehicle id='S_N_208' type='standard_car' route='S_N' depart='555.0' departLane='random' departSpeed='10' />
    <vehicle id='S_N_209' type='standard_car' route='S_N' depart='558.0' departLane='random' departSpeed='10' />
    <vehicle id='S_N_210' type='standard_car' route='S_N' depart='558.0' departLane='random' departSpeed='10' />
    <vehicle id='E_W_211' type='standard_car' route='E_W' depart='558.0' departLane='random' departSpeed='10' />
    <vehicle id='S_E_212' type='standard_car' route='S_E' depart='559.0' departLane='random' departSpeed='10' />
    <vehicle id='W_E_213' type='standard_car' route='W_E' depart='560.0' departLane='random' departSpeed='10' />
    <vehicle id='E_W_214' type='standard_car' route='E_W' depart='560.0' departLane='random' departSpeed='10' />
    <vehicle id='N_S_215' type='standard_car' route='N_S' depart='560.0' departLane='random' departSpeed='10' />
    <vehicle id='W_E_216' type='standard_car' route='W_E' depart='563.0' departLane='random' departSpeed='10' />
    <vehicle id='N_S_217' type='standard_car' route='N_S' depart='567.0' departLane='random' departSpeed='10' />
    <vehicle id='W_E_218' type='standard_car' route='W_E' depart='568.0' departLane='random' departSpeed='10' />
    <vehicle id='S_E_219' type='standard_car' route='S_E' depart='569.0' departLane='random' departSpeed='10' />
    <vehicle id='E_W_220' type='standard_car' route='E_W' depart='569.0' departLane='random' departSpeed='10' />
    <vehicle id='S_N_221' type='standard_car' route='S_N' depart='569.0' departLane='random' departSpeed='10' />
    <vehicle id='N_S_222' type='standard_car' route='N_S' depart='569.0' departLane='random' departSpeed='10' />
    <vehicle id='S_N_223' type='standard_car' route='S_N' depart='570.0' departLane='random' departSpeed='10' />
    <vehicle id='S_E_224' type='standard_car' route='S_E' depart='570.0' departLane='random' departSpeed='10' />
    <vehicle id='S_E_225' type='standard_car' route='S_E' depart='574.0' departLane='random' departSpeed='10' />
    <vehicle id='W_S_226' type='standard_car' route='W_S' depart='574.0' departLane='random' departSpeed='10' />
    <vehicle id='E_N_227' type='standard_car' route='E_N' depart='575.0' departLane='random' departSpeed='10' />
    <vehicle id='W_S_228' type='standard_car' route='W_S' depart='577.0' departLane='random' departSpeed='10' />
    <vehicle id='S_E_229' type='standard_car' route='S_E' depart='578.0' departLane='random' departSpeed='10' />
    <vehicle id='N_S_230' type='standard_car' route='N_S' depart='582.0' departLane='random' departSpeed='10' />
    <vehicle id='E_W_231' type='standard_car' route='E_W' depart='583.0' departLane='random' departSpeed='10' />
    <vehicle id='N_S_232' type='standard_car' route='N_S' depart='583.0' departLane='random' departSpeed='10' />
    <vehicle id='S_E_233' type='standard_car' route='S_E' depart='585.0' departLane='random' departSpeed='10' />
    <vehicle id='N_S_234' type='standard_car' route='N_S' depart='586.0' departLane='random' departSpeed='10' />
    <vehicle id='E_N_235' type='standard_car' route='E_N' depart='589.0' departLane='random' departSpeed='10' />
    <vehicle id='W_E_236' type='standard_car' route='W_E' depart='590.0' departLane='random' departSpeed='10' />
    <vehicle id='N_W_237' type='standard_car' route='N_W' depart='592.0' departLane='random' departSpeed='10' />
    <vehicle id='S_N_238' type='standard_car' route='S_N' depart='593.0' departLane='random' departSpeed='10' />
    <vehicle id='W_S_239' type='standard_car' route='W_S' depart='593.0' departLane='random' departSpeed='10' />
    <vehicle id='S_E_240' type='standard_car' route='S_E' depart='594.0' departLane='random' departSpeed='10' />
    <vehicle id='W_E_241' type='standard_car' route='W_E' depart='594.0' departLane='random' departSpeed='10' />
    <vehicle id='S_E_242' type='standard_car' route='S_E' depart='595.0' departLane='random' departSpeed='10' />
    <vehicle id='E_N_243' type='standard_car' route='E_N' depart='597.0' departLane='random' departSpeed='10' />
    <vehicle id='E_N_244' type='standard_car' route='E_N' depart='597.0' departLane='random' departSpeed='10' />
    <vehicle id='S_E_245' type='standard_car' route='S_E' depart='598.0' departLane='random' departSpeed='10' />
    <vehicle id='S_E_246' type='standard_car' route='S_E' depart='599.0' departLane='random' departSpeed='10' />
    <vehicle id='N_S_247' type='standard_car' route='N_S' depart='600.0' departLane='random' departSpeed='10' />
    <vehicle id='W_S_248' type='standard_car' route='W_S' depart='601.0' departLane='random' departSpeed='10' />
    <vehicle id='N_W_249' type='standard_car' route='N_W' depart='605.0' departLane='random' departSpeed='10' />
    <vehicle id='N_W_250' type='standard_car' route='N_W' depart='606.0' departLane='random' departSpeed='10' />
    <vehicle id='W_S_251' type='standard_car' route='W_S' depart='606.0' departLane='random' departSpeed='10' />
    <vehicle id='S_E_252' type='standard_car' route='S_E' depart='609.0' departLane='random' departSpeed='10' />
    <vehicle id='W_S_253' type='standard_car' route='W_S' depart='611.0' departLane='random' departSpeed='10' />
    <vehicle id='S_E_254' type='standard_car' route='S_E' depart='612.0' departLane='random' departSpeed='10' />
    <vehicle id='W_S_255' type='standard_car' route='W_S' depart='613.0' departLane='random' departSpeed='10' />
    <vehicle id='N_W_256' type='standard_car' route='N_W' depart='614.0' departLane='random' departSpeed='10' />
    <vehicle id='W_E_257' type='standard_car' route='W_E' depart='615.0' departLane='random' departSpeed='10' />
    <vehicle id='N_W_258' type='standard_car' route='N_W' depart='617.0' departLane='random' departSpeed='10' />