<routes>
            <vType id="standard_car" length="3.0" maxSpeed="15" minGap="1.0" accel="1.0" decel="4.0" />
            <route id="N_S" edges="gneE5 gneE1 -gneE3 -gneE7"/>
            <route id="N_E" edges="gneE5 gneE1 -gneE0 -gneE4 "/>
            <route id="N_W" edges="gneE5 gneE1 -gneE2 -gneE6"/>
            <route id="S_W" edges="gneE7 gneE3 -gneE2 -gneE6"/>
            <route id="S_E" edges="gneE7 gneE3 -gneE0 -gneE4 "/>
            <route id="S_N" edges="gneE7 gneE3 -gneE1 -gneE5 "/>

            <route id="W_E" edges="gneE6 gneE2 -gneE0 -gneE4 "/>
            <route id="W_N" edges="gneE6 gneE2 -gneE1 -gneE5 "/>
            <route id="W_S" edges="gneE6 gneE2 -gneE3 -gneE7 "/>
            <route id="E_N" edges="gneE4 gneE0 -gneE1 -gneE5 "/>
            <route id="E_S" edges="gneE4 gneE0 -gneE3 -gneE7"/>
            <route id="E_W" edges="gneE4 gneE0 -gneE2 -gneE6 "/>
            
    <vehicle id='S_E_0' type='standard_car' route='S_E' depart='32.0' departLane='random' departSpeed='10' />
    <vehicle id='E_W_1' type='standard_car' route='E_W' depart='33.0' departLane='random' departSpeed='10' />
    <vehicle id='E_N_2' type='standard_car' route='E_N' depart='42.0' departLane='random' departSpeed='10' />
    <vehicle id='W_S_3' type='standard_car' route='W_S' depart='52.0' departLane='random' departSpeed='10' />
    <vehicle id='W_S_4' type='standard_car' route='W_S' depart='62.0' departLane='random' departSpeed='10' />
    <vehicle id='S_E_5' type='standard_car' route='S_E' depart='64.0' departLane='random' departSpeed='10' />
    <vehicle id='N_W_6' type='standard_car' route='N_W' depart='70.0' departLane='random' departSpeed='10' />
    <vehicle id='N_S_7' type='standard_car' route='N_S' depart='72.0' departLane='random' departSpeed='10' />
    <vehicle id='W_E_8' type='standard_car' route='W_E' depart='75.0' departLane='random' departSpeed='10' />
    <vehicle id='W_E_9' type='standard_car' route='W_E' depart='77.0' departLane='random' departSpeed='10' />
    <vehicle id='N_S_10' type='standard_car' route='N_S' depart='77.0' departLane='random' departSpeed='10' />
    <vehicle id='S_E_11' type='standard_car' route='S_E' depart='87.0' departLane='random' departSpeed='10' />
    <vehicle id='S_N_12' type='standard_car' route='S_N' depart='90.0' departLane='random' departSpeed='10' />
    <vehicle id='N_W_13' type='standard_car' route='N_W' depart='90.0' departLane='random' departSpeed='10' />
    <vehicle id='S_N_14' type='standard_car' route='S_N' depart='93.0' departLane='random' departSpeed='10' />
    <vehicle id='S_E_15' type='standard_car' route='S_E' depart='93.0' departLane='random' departSpeed='10' />
    <vehicle id='S_E_16' type='standard_car' route='S_E' depart='94.0' departLane='random' departSpeed='10' />
    <vehicle id='N_W_17' type='standard_car' route='N_W' depart='98.0' departLane='random' departSpeed='10' />
    <vehicle id='S_E_18' type='standard_car' route='S_E' depart='99.0' departLane='random' departSpeed='10' />
    <vehicle id='E_W_19' type='standard_car' route='E_W' depart='102.0' departLane='random' departSpeed='10' />
    <vehicle id='W_S_20' type='standard_car' route='W_S' depart='106.0' departLane='random' departSpeed='10' />
    <vehicle id='N_W_21' type='standard_car' route='N_W' depart='113.0' departLane='random' departSpeed='10' />
    <vehicle id='E_W_22' type='standard_car' route='E_W' depart='127.0' departLane='random' departSpeed='10' />
    <vehicle id='E_N_23' type='standard_car' route='E_N' depart='127.0' departLane='random' departSpeed='10' />
    <vehicle id='N_S_24' type='standard_car' route='N_S' depart='127.0' departLane='random' departSpeed='10' />
    <vehicle id='W_S_25' type='standard_car' route='W_S' depart='130.0' departLane='random' departSpeed='10' />
    <vehicle id='N_S_26' type='standard_car' route='N_S' depart='136.0' departLane='random' departSpeed='10' />
    <vehicle id='E_W_27' type='standard_car' route='E_W' depart='139.0' departLane='random' departSpeed='10' />
    <vehicle id='N_W_28' type='standard_car' route='N_W' depart='140.0' departLane='random' departSpeed='10' />
    <vehicle id='N_W_29' type='standard_car' route='N_W' depart='140.0' departLane='random' departSpeed='10' />
    <vehicle id='W_S_30' type='standard_car' route='W_S' depart='152.0' departLane='random' departSpeed='10' />
    <vehicle id='W_E_31' type='standard_car' route='W_E' depart='154.0' departLane='random' departSpeed='10' />
    <vehicle id='W_S_32' type='standard_car' route='W_S' depart='156.0' departLane='random' departSpeed='10' />
    <vehicle id='N_W_33' type='standard_car' route='N_W' depart='157.0' departLane='random' departSpeed='10' />
    <vehicle id='E_N_34' type='standard_car' route='E_N' depart='158.0' departLane='random' departSpeed='10' />
    <vehicle id='E_N_35' type='standard_car' route='E_N' depart='161.0' departLane='random' departSpeed='10' />
    <vehicle id='S_N_36' type='standard_car' route='S_N' depart='162.0' departLane='random' departSpeed='10' />
    <vehicle id='N_W_37' type='standard_car' route='N_W' depart='162.0' departLane='random' departSpeed='10' />
    <vehicle id='E_N_38' type='standard_car' route='E_N' depart='162.0' departLane='random' departSpeed='10' />
    <vehicle id='W_E_39' type='standard_car' route='W_E' depart='163.0' departLane='random' departSpeed='10' />
    <vehicle id='W_S_40' type='standard_car' route='W_S' depart='163.0' departLane='random' departSpeed='10' />
    <vehicle id='S_E_41' type='standard_car' route='S_E' depart='167.0' departLane='random' departSpeed='10' />
    <vehicle id='S_E_42' type='standard_car' route='S_E' depart='167.0' departLane='random' departSpeed='10' />
    <vehicle id='W_E_43' type='standard_car' route='W_E' depart='172.0' departLane='random' departSpeed='10' />
    <vehicle id='N_W_44' type='standard_car' route='N_W' depart='172.0' departLane='random' departSpeed='10' />
    <vehicle id='N_S_45' type='standard_car' route='N_S' depart='173.0' departLane='random' departSpeed='10' />
    <vehicle id='S_E_46' type='standard_car' route='S_E' depart='173.0' departLane='random' departSpeed='10' />
    <vehicle id='W_E_47' type='standard_car' route='W_E' depart='176.0' departLane='random' departSpeed='10' />
    <vehicle id='E_N_48' type='standard_car' route='E_N' depart='179.0' departLane='random' departSpeed='10' />
    <vehicle id='S_E_49' type='standard_car' route='S_E' depart='180.0' departLane='random' departSpeed='10' />
    <vehicle id='W_E_50' type='standard_car' route='W_E' depart='182.0' departLane='random' departSpeed='10' />
    <vehicle id='W_S_51' type='standard_car' route='W_S' depart='182.0' departLane='random' departSpeed='10' />
    <vehicle id='W_S_52' type='standard_car' route='W_S' depart='183.0' departLane='random' departSpeed='10' />
    <vehicle id='E_N_53' type='standard_car' route='E_N' depart='183.0' departLane='random' departSpeed='10' />
    <vehicle id='W_S_54' type='standard_car' route='W_S' depart='184.0' departLane='random' departSpeed='10' />
    <vehicle id='W_S_55' type='standard_car' route='W_S' depart='186.0' departLane='random' departSpeed='10' />
    <vehicle id='N_W_56' type='standard_car' route='N_W' depart='187.0' departLane='random' departSpeed='10' />
    <vehicle id='E_W_57' type='standard_car' route='E_W' depart='190.0' departLane='random' departSpeed='10' />
    <vehicle id='N_W_58' type='standard_car' route='N_W' depart='194.0' departLane='random' departSpeed='10' />
    <vehicle id='S_E_59' type='standard_car' route='S_E' depart='201.0' departLane='random' departSpeed='10' />
    <vehicle id='W_S_60' type='standard_car' route='W_S' depart='202.0' departLane='random' departSpeed='10' />
    <vehicle id='E_N_61' type='standard_car' route='E_N' depart='203.0' departLane='random' departSpeed='10' />
    <vehicle id='W_S_62' type='standard_car' route='W_S' depart='204.0' departLane='random' departSpeed='10' />
    <vehicle id='E_W_63' type='standard_car' route='E_W' depart='204.0' departLane='random' departSpeed='10' />
    <vehicle id='E_N_64' type='standard_car' route='E_N' depart='206.0' departLane='random' departSpeed='10' />
    <vehicle id='S_E_65' type='standard_car' route='S_E' depart='207.0' departLane='random' departSpeed='10' />
    <vehicle id='E_N_66' type='standard_car' route='E_N' depart='208.0' departLane='random' departSpeed='10' />
    <vehicle id='N_S_67' type='standard_car' route='N_S' depart='211.0' departLane='random' departSpeed='10' />
    <vehicle id='S_E_68' type='standard_car' route='S_E' depart='211.0' departLane='random' departSpeed='10' />
    <vehicle id='W_S_69' type='standard_car' route='W_S' depart='216.0' departLane='random' departSpeed='10' />
    <vehicle id='E_N_70' type='standard_car' route='E_N' depart='218.0' departLane='random' departSpeed='10' />
    <vehicle id='S_N_71' type='standard_car' route='S_N' depart='219.0' departLane='random' departSpeed='10' />
    <vehicle id='N_S_72' type='standard_car' route='N_S' depart='220.0' departLane='random' departSpeed='10' />
    <vehicle id='S_N_73' type='standard_car' route='S_N' depart='224.0' departLane='random' departSpeed='10' />
    <vehicle id='N_W_74' type='standard_car' route='N_W' depart='225.0' departLane='random' departSpeed='10' />
    <vehicle id='S_N_75' type='standard_car' route='S_N' depart='228.0' departLane='random' departSpeed='10' />
    <vehicle id='E_W_76' type='standard_car' route='E_W' depart='228.0' departLane='random' departSpeed='10' />
    <vehicle id='S_E_77' type='standard_car' route='S_E' depart='229.0' departLane='random' departSpeed='10' />
    <vehicle id='S_E_78' type='standard_car' route='S_E' depart='230.0' departLane='random' departSpeed='10' />
    <vehicle id='E_N_79' type='standard_car' route='E_N' depart='231.0' departLane='random' departSpeed='10' />
    <vehicle id='N_S_80' type='standard_car' route='N_S' depart='233.0' departLane='random' departSpeed='10' />
    <vehicle id='N_W_81' type='standard_car' route='N_W' depart='233.0' departLane='random' departSpeed='10' />
    <vehicle id='W_E_82' type='standard_car' route='W_E' depart='234.0' departLane='random' departSpeed='10' />
    <vehicle id='S_E_83' type='standard_car' route='S_E' depart='235.0' departLane='random' departSpeed='10' />
    <vehicle id='W_S_84' type='standard_car' route='W_S' depart='239.0' departLane='random' departSpeed='10' />
    <vehicle id='E_W_85' type='standard_car' route='E_W' depart='241.0' departLane='random' departSpeed='10' />
    <vehicle id='N_W_86' type='standard_car' route='N_W' depart='244.0' departLane='random' departSpeed='10' />
    <vehicle id='N_S_87' type='standard_car' route='N_S' depart='246.0' departLane='random' departSpeed='10' />
    <vehicle id='W_S_88' type='standard_car' route='W_S' depart='246.0' departLane='random' departSpeed='10' />
    <vehicle id='S_N_89' type='standard_car' route='S_N' depart='249.0' departLane='random' departSpeed='10' />
    <vehicle id='N_S_90' type='standard_car' route='N_S' depart='250.0' departLane='random' departSpeed='10' />
    <vehicle id='E_W_91' type='standard_car' route='E_W' depart='250.0' departLane='random' departSpeed='10' />
    <vehicle id='N_S_92' type='standard_car' route='N_S' depart='251.0' departLane='random' departSpeed='10' />
    <vehicle id='S_N_93' type='standard_car' route='S_N' depart='255.0' departLane='random' departSpeed='10' />
    <vehicle id='N_W_94' type='standard_car' route='N_W' depart='263.0' departLane='random' departSpeed='10' />
    <vehicle id='S_E_95' type='standard_car' route='S_E' depart='263.0' departLane='random' departSpeed='10' />
    <vehicle id='E_N_96' type='standard_car' route='E_N' depart='267.0' departLane='random' departSpeed='10' />
    <vehicle id='S_E_97' type='standard_car' route='S_E' depart='267.0' departLane='random' departSpeed='10' />
    <vehicle id='W_S_98' type='standard_car' route='W_S' depart='272.0' departLane='random' departSpeed='10' />
    <vehicle id='W_S_99' type='standard_car' route='W_S' depart='275.0' departLane='random' departSpeed='10' />
    <vehicle id='W_S_100' type='standard_car' route='W_S' depart='277.0' departLane='random' departSpeed='10' />
    <vehicle id='N_W_101' type='standard_car' route='N_W' depart='278.0' departLane='random' departSpeed='10' />
    <vehicle id='W_S_102' type='standard_car' route='W_S' depart='281.0' departLane='random' departSpeed='10' />
    <vehicle id='N_W_103' type='standard_car' route='N_W' depart='282.0' departLane='random' departSpeed='10' />
    <vehicle id='W_E_104' type='standard_car' route='W_E' depart='283.0' departLane='random' departSpeed='10' />
    <vehicle id='N_W_105' type='standard_car' route='N_W' depart='284.0' departLane='random' departSpeed='10' />
    <vehicle id='E_W_106' type='standard_car' route='E_W' depart='285.0' departLane='random' departSpeed='10' />
    <vehicle id='E_W_107' type='standard_car' route='E_W' depart='285.0' departLane='random' departSpeed='10' />
    <vehicle id='W_S_108' type='standard_car' route='W_S' depart='285.0' departLane='random' departSpeed='10' />
    <vehicle id='E_N_109' type='standard_car' route='E_N' depart='286.0' departLane='random' departSpeed='10' />
    <vehicle id='S_E_110' type='standard_car' route='S_E' depart='287.0' departLane='random' departSpeed='10' />
    <vehicle id='S_E_111' type='standard_car' route='S_E' depart='288.0' departLane='random' departSpeed='10' />
    <vehicle id='N_W_112' type='standard_car' route='N_W' depart='290.0' departLane='random' departSpeed='10' />
    <vehicle id='W_S_113' type='standard_car' route='W_S' depart='290.0' departLane='random' departSpeed='10' />
    <vehicle id='N_W_114' type='standard_car' route='N_W' depart='291.0' departLane='random' departSpeed='10' />
    <vehicle id='E_W_115' type='standard_car' route='E_W' depart='291.0' departLane='random' departSpeed='10' />
    <vehicle id='N_W_116' type='standard_car' route='N_W' depart='292.0' departLane='random' departSpeed='10' />
    <vehicle id='N_S_117' type='standard_car' route='N_S' depart='293.0' departLane='random' departSpeed='10' />
    <vehicle id='W_S_118' type='standard_car' route='W_S' depart='294.0' departLane='random' departSpeed='10' />
    <vehicle id='S_E_119' type='standard_car' route='S_E' depart='295.0' departLane='random' departSpeed='10' />
    <vehicle id='N_W_120' type='standard_car' route='N_W' depart='297.0' departLane='random' departSpeed='10' />
    <vehicle id='W_S_121' type='standard_car' route='W_S' depart='300.0' departLane='random' departSpeed='10' />
    <vehicle id='S_E_122' type='standard_car' route='S_E' depart='300.0' departLane='random' departSpeed='10' />
    <vehicle id='E_W_123' type='standard_car' route='E_W' depart='302.0' departLane='random' departSpeed='10' />
    <vehicle id='E_N_124' type='standard_car' route='E_N' depart='304.0' departLane='random' departSpeed='10' />
    <vehicle id='N_W_125' type='standard_car' route='N_W' depart='313.0' departLane='random' departSpeed='10' />
    <vehicle id='S_E_126' type='standard_car' route='S_E' depart='315.0' departLane='random' departSpeed='10' />
    <vehicle id='W_S_127' type='standard_car' route='W_S' depart='315.0' departLane='random' departSpeed='10' />
    <vehicle id='N_W_128' type='standard_car' route='N_W' depart='317.0' departLane='random' departSpeed='10' />
    <vehicle id='N_S_129' type='standard_car' route='N_S' depart='317.0' departLane='random' departSpeed='10' />
    <vehicle id='S_E_130' type='standard_car' route='S_E' depart='322.0' departLane='random' departSpeed='10' />
    <vehicle id='W_S_131' type='standard_car' route='W_S' depart='325.0' departLane='random' departSpeed='10' />
    <vehicle id='E_W_132' type='standard_car' route='E_W' depart='326.0' departLane='random' departSpeed='10' />
    <vehicle id='N_W_133' type='standard_car' route='N_W' depart='327.0' departLane='random' departSpeed='10' />
    <vehicle id='E_N_134' type='standard_car' route='E_N' depart='327.0' departLane='random' departSpeed='10' />
    <vehicle id='E_N_135' type='standard_car' route='E_N' depart='328.0' departLane='random' departSpeed='10' />
    <vehicle id='S_E_136' type='standard_car' route='S_E' depart='328.0' departLane='random' departSpeed='10' />
    <vehicle id='W_S_137' type='standard_car' route='W_S' depart='329.0' departLane='random' departSpeed='10' />
    <vehicle id='E_N_138' type='standard_car' route='E_N' depart='329.0' departLane='random' departSpeed='10' />
    <vehicle id='N_W_139' type='standard_car' route='N_W' depart='330.0' departLane='random' departSpeed='10' />
    <vehicle id='S_E_140' type='standard_car' route='S_E' depart='331.0' departLane='random' departSpeed='10' />
    <vehicle id='S_E_141' type='standard_car' route='S_E' depart='332.0' departLane='random' departSpeed='10' />
    <vehicle id='W_S_142' type='standard_car' route='W_S' depart='333.0' departLane='random' departSpeed='10' />
    <vehicle id='N_S_143' type='standard_car' route='N_S' depart='334.0' departLane='random' departSpeed='10' />
    <vehicle id='W_S_144' type='standard_car' route='W_S' depart='337.0' departLane='random' departSpeed='10' />
    <vehicle id='N_W_145' type='standard_car' route='N_W' depart='337.0' departLane='random' departSpeed='10' />
    <vehicle id='N_W_146' type='standard_car' route='N_W' depart='338.0' departLane='random' departSpeed='10' />
    <vehicle id='W_S_147' type='standard_car' route='W_S' depart='338.0' departLane='random' departSpeed='10' />
    <vehicle id='N_W_148' type='standard_car' route='N_W' depart='339.0' departLane='random' departSpeed='10' />
    <vehicle id='E_W_149' type='standard_car' route='E_W' depart='340.0' departLane='random' departSpeed='10' />
    <vehicle id='S_E_150' type='standard_car' route='S_E' depart='341.0' departLane='random' departSpeed='10' />
    <vehicle id='S_E_151' type='standard_car' route='S_E' depart='344.0' departLane='random' departSpeed='10' />
    <vehicle id='S_N_152' type='standard_car' route='S_N' depart='345.0' departLane='random' departSpeed='10' />
    <vehicle id='S_N_153' type='standard_car' route='S_N' depart='346.0' departLane='random' departSpeed='10' />
    <vehicle id='S_N_154' type='standard_car' route='S_N' depart='348.0' departLane='random' departSpeed='10' />
    <vehicle id='W_S_155' type='standard_car' route='W_S' depart='352.0' departLane='random' departSpeed='10' />
    <vehicle id='E_W_156' type='standard_car' route='E_W' depart='354.0' departLane='random' departSpeed='10' />
    <vehicle id='W_S_157' type='standard_car' route='W_S' depart='356.0' departLane='random' departSpeed='10' />
    <vehicle id='N_S_158' type='standard_car' route='N_S' depart='356.0' departLane='random' departSpeed='10' />
    <vehicle id='S_E_159' type='standard_car' route='S_E' depart='359.0' departLane='random' departSpeed='10' />
    <vehicle id='N_W_160' type='standard_car' route='N_W' depart='360.0' departLane='random' departSpeed='10' />
    <vehicle id='E_N_161' type='standard_car' route='E_N' depart='362.0' departLane='random' departSpeed='10' />
    <vehicle id='N_W_162' type='standard_car' route='N_W' depart='362.0' departLane='random' departSpeed='10' />
    <vehicle id='E_N_163' type='standard_car' route='E_N' depart='365.0' departLane='random' departSpeed='10' />
    <vehicle id='N_S_164' type='standard_car' route='N_S' depart='365.0' departLane='random' departSpeed='10' />
    <vehicle id='W_S_165' type='standard_car' route='W_S' depart='366.0' departLane='random' departSpeed='10' />
    <vehicle id='S_N_166' type='standard_car' route='S_N' depart='366.0' departLane='random' departSpeed='10' />
    <vehicle id='N_W_167' type='standard_car' route='N_W' depart='371.0' departLane='random' departSpeed='10' />
    <vehicle id='S_N_168' type='standard_car' route='S_N' depart='372.0' departLane='random' departSpeed='10' />
    <vehicle id='N_W_169' type='standard_car' route='N_W' depart='374.0' departLane='random' departSpeed='10' />
    <vehicle id='S_N_170' type='standard_car' route='S_N' depart='375.0' departLane='random' departSpeed='10' />
    <vehicle id='E_W_171' type='standard_car' route='E_W' depart='376.0' departLane='random' departSpeed='10' />
    <vehicle id='E_N_172' type='standard_car' route='E_N' depart='377.0' departLane='random' departSpeed='10' />
    <vehicle id='E_W_173' type='standard_car' route='E_W' depart='377.0' departLane='random' departSpeed='10' />
    <vehicle id='W_S_174' type='standard_car' route='W_S' depart='378.0' departLane='random' departSpeed='10' />
    <vehicle id='N_W_175' type='standard_car' route='N_W' depart='381.0' departLane='random' departSpeed='10' />
    <vehicle id='W_E_176' type='standard_car' route='W_E' depart='383.0' departLane='random' departSpeed='10' />
    <vehicle id='N_S_177' type='standard_car' route='N_S' depart='383.0' departLane='random' departSpeed='10' />
    <vehicle id='S_E_178' type='standard_car' route='S_E' depart='385.0' departLane='random' departSpeed='10' />
    <vehicle id='E_W_179' type='standard_car' route='E_W' depart='386.0' departLane='random' departSpeed='10' />
    <vehicle id='N_W_180' type='standard_car' route='N_W' depart='386.0' departLane='random' departSpeed='10' />
    <vehicle id='S_N_181' type='standard_car' route='S_N' depart='388.0' departLane='random' departSpeed='10' />
    <vehicle id='S_E_182' type='standard_car' route='S_E' depart='390.0' departLane='random' departSpeed='10' />
    <vehicle id='N_W_183' type='standard_car' route='N_W' depart='393.0' departLane='random' departSpeed='10' />
    <vehicle id='W_S_184' type='standard_car' route='W_S' depart='394.0' departLane='random' departSpeed='10' />
    <vehicle id='E_W_185' type='standard_car' route='E_W' depart='394.0' departLane='random' departSpeed='10' />
    <vehicle id='N_W_186' type='standard_car' route='N_W' depart='395.0' departLane='random' departSpeed='10' />
    <vehicle id='N_W_187' type='standard_car' route='N_W' depart='397.0' departLane='random' departSpeed='10' />
    <vehicle id='S_E_188' type='standard_car' route='S_E' depart='399.0' departLane='random' departSpeed='10' />
    <vehicle id='E_N_189' type='standard_car' route='E_N' depart='399.0' departLane='random' departSpeed='10' />
    <vehicle id='S_N_190' type='standard_car' route='S_N' depart='401.0' departLane='random' departSpeed='10' />
    <vehicle id='E_N_191' type='standard_car' route='E_N' depart='401.0' departLane='random' departSpeed='10' />
    <vehicle id='S_N_192' type='standard_car' route='S_N' depart='401.0' departLane='random' departSpeed='10' />
    <vehicle id='S_E_193' type='standard_car' route='S_E' depart='401.0' departLane='random' departSpeed='10' />
    <vehicle id='N_S_194' type='standard_car' route='N_S' depart='402.0' departLane='random' departSpeed='10' />
    <vehicle id='N_W_195' type='standard_car' route='N_W' depart='402.0' departLane='random' departSpeed='10' />
    <vehicle id='N_W_196' type='standard_car' route='N_W' depart='404.0' departLane='random' departSpeed='10' />
    <vehicle id='S_N_197' type='standard_car' route='S_N' depart='404.0' departLane='random' departSpeed='10' />
    <vehicle id='S_N_198' type='standard_car' route='S_N' depart='405.0' departLane='random' departSpeed='10' />
    <vehicle id='E_W_199' type='standard_car' route='E_W' depart='405.0' departLane='random' departSpeed='10' />
    <vehicle id='S_E_200' type='standard_car' route='S_E' depart='406.0' departLane='random' departSpeed='10' />
    <vehicle id='E_W_201' type='standard_car' route='E_W' depart='408.0' departLane='random' departSpeed='10' />
    <vehicle id='S_E_202' type='standard_car' route='S_E' depart='408.0' departLane='random' departSpeed='10' />
    <vehicle id='S_E_203' type='standard_car' route='S_E' depart='408.0' departLane='random' departSpeed='10' />
    <vehicle id='W_S_204' type='standard_car' route='W_S' depart='408.0' departLane='random' departSpeed='10' />
    <vehicle id='S_N_205' type='standard_car' route='S_N' depart='409.0' departLane='random' departSpeed='10' />
    <vehicle id='W_S_206' type='standard_car' route='W_S' depart='410.0' departLane='random' departSpeed='10' />
    <vehicle id='N_W_207' type='standard_car' route='N_W' depart='410.0' departLane='random' departSpeed='10' />
    <vehicle id='E_N_208' type='standard_car' route='E_N' depart='413.0' departLane='random' departSpeed='10' />
    <vehicle id='N_W_209' type='standard_car' route='N_W' depart='415.0' departLane='random' departSpeed='10' />
    <vehicle id='S_N_210' type='standard_car' route='S_N' depart='415.0' departLane='random' departSpeed='10' />
    <vehicle id='S_N_211' type='standard_car' route='S_N' depart='417.0' departLane='random' departSpeed='10' />
    <vehicle id='W_E_212' type='standard_car' route='W_E' depart='417.0' departLane='random' departSpeed='10' />
    <vehicle id='E_N_213' type='standard_car' route='E_N' depart='418.0' departLane='random' departSpeed='10' />
    <vehicle id='W_S_214' type='standard_car' route='W_S' depart='420.0' departLane='random' departSpeed='10' />
    <vehicle id='N_S_215' type='standard_car' route='N_S' depart='421.0' departLane='random' departSpeed='10' />
    <vehicle id='W_S_216' type='standard_car' route='W_S' depart='421.0' departLane='random' departSpeed='10' />
    <vehicle id='E_N_217' type='standard_car' route='E_N' depart='423.0' departLane='random' departSpeed='10' />
    <vehicle id='N_W_218' type='standard_car' route='N_W' depart='424.0' departLane='random' departSpeed='10' />
    <vehicle id='E_N_219' type='standard_car' route='E_N' depart='426.0' departLane='random' departSpeed='10' />
    <vehicle id='W_E_220' type='standard_car' route='W_E' depart='426.0' departLane='random' departSpeed='10' />
    <vehicle id='W_S_221' type='standard_car' route='W_S' depart='428.0' departLane='random' departSpeed='10' />
    <vehicle id='E_N_222' type='standard_car' route='E_N' depart='428.0' departLane='random' departSpeed='10' />
    <vehicle id='W_E_223' type='standard_car' route='W_E' depart='429.0' departLane='random' departSpeed='10' />
    <vehicle id='W_S_224' type='standard_car' route='W_S' depart='429.0' departLane='random' departSpeed='10' />
    <vehicle id='E_W_225' type='standard_car' route='E_W' depart='432.0' departLane='random' departSpeed='10' />
    <vehicle id='W_E_226' type='standard_car' route='W_E' depart='432.0' departLane='random' departSpeed='10' />
    <vehicle id='S_E_227' type='standard_car' route='S_E' depart='433.0' departLane='random' departSpeed='10' />
    <vehicle id='E_W_228' type='standard_car' route='E_W' depart='433.0' departLane='random' departSpeed='10' />
    <vehicle id='W_E_229' type='standard_car' route='W_E' depart='434.0' departLane='random' departSpeed='10' />
    <vehicle id='N_W_230' type='standard_car' route='N_W' depart='435.0' departLane='random' departSpeed='10' />
    <vehicle id='E_N_231' type='standard_car' route='E_N' depart='436.0' departLane='random' departSpeed='10' />
    <vehicle id='E_W_232' type='standard_car' route='E_W' depart='437.0' departLane='random' departSpeed='10' />
    <vehicle id='S_E_233' type='standard_car' route='S_E' depart='445.0' departLane='random' departSpeed='10' />
    <vehicle id='S_N_234' type='standard_car' route='S_N' depart='446.0' departLane='random' departSpeed='10' />
    <vehicle id='S_N_235' type='standard_car' route='S_N' depart='448.0' departLane='random' departSpeed='10' />
    <vehicle id='E_N_236' type='standard_car' route='E_N' depart='449.0' departLane='random' departSpeed='10' />
    <vehicle id='S_N_237' type='standard_car' route='S_N' depart='449.0' departLane='random' departSpeed='10' />
    <vehicle id='W_E_238' type='standard_car' route='W_E' depart='450.0' departLane='random' departSpeed='10' />
    <vehicle id='N_W_239' type='standard_car' route='N_W' depart='450.0' departLane='random' departSpeed='10' />
    <vehicle id='N_S_240' type='standard_car' route='N_S' depart='451.0' departLane='random' departSpeed='10' />
    <vehicle id='S_N_241' type='standard_car' route='S_N' depart='451.0' departLane='random' departSpeed='10' />
    <vehicle id='E_N_242' type='standard_car' route='E_N' depart='451.0' departLane='random' departSpeed='10' />
    <vehicle id='S_N_243' type='standard_car' route='S_N' depart='451.0' departLane='random' departSpeed='10' />
    <vehicle id='W_E_244' type='standard_car' route='W_E' depart='452.0' departLane='random' departSpeed='10' />
    <vehicle id='W_S_245' type='standard_car' route='W_S' depart='453.0' departLane='random' departSpeed='10' />
    <vehicle id='N_W_246' type='standard_car' route='N_W' depart='453.0' departLane='random' departSpeed='10' />
    <vehicle id='S_E_247' type='standard_car' route='S_E' depart='455.0' departLane='random' departSpeed='10' />
    <vehicle id='S_E_248' type='standard_car' route='S_E' depart='455.0' departLane='random' departSpeed='10' />
    <vehicle id='E_N_249' type='standard_car' route='E_N' depart='459.0' departLane='random' departSpeed='10' />
    <vehicle id='W_S_250' type='standard_car' route='W_S' depart='459.0' departLane='random' departSpeed='10' />
    <vehicle id='S_N_251' type='standard_car' route='S_N' depart='459.0' departLane='random' departSpeed='10' />
    <vehicle id='W_E_252' type='standard_car' route='W_E' depart='461.0' departLane='random' departSpeed='10' />
    <vehicle id='S_E_253' type='standard_car' route='S_E' depart='461.0' departLane='random' departSpeed='10' />
    <vehicle id='N_W_254' type='standard_car' route='N_W' depart='462.0' departLane='random' departSpeed='10' />
    <vehicle id='W_E_255' type='standard_car' route='W_E' depart='462.0' departLane='random' departSpeed='10' />
    <vehicle id='E_N_256' type='standard_car' route='E_N' depart='462.0' departLane='random' departSpeed='10' />
    <vehicle id='E_W_257' type='standard_car' route='E_W' depart='463.0' departLane='random' departSpeed='10' />