<routes>
    <vType id="standard_car" length="5.0" maxSpeed="11.11" minGap="2.5" accel="2.0" decel="4.5" />
    <route id="N_S" edges="road_1_2_3 road_1_1_3"/>
    <route id="N_E" edges="road_1_2_3 road_1_1_0"/>
    <route id="N_W" edges="road_1_2_3 road_1_1_2"/>
    <route id="S_W" edges="road_1_0_1 road_1_1_2"/>
    <route id="S_E" edges="road_1_0_1 road_1_1_0"/>
    <route id="S_N" edges="road_1_0_1 road_1_1_1"/>

    <route id="W_E" edges="road_0_1_0 road_1_1_0"/>
    <route id="W_N" edges="road_0_1_0 road_1_1_1"/>
    <route id="W_S" edges="road_0_1_0 road_1_1_3"/>
    <route id="E_N" edges="road_2_1_2 road_1_1_1"/>
    <route id="E_S" edges="road_2_1_2 road_1_1_3"/>
    <route id="E_W" edges="road_2_1_2 road_1_1_2"/>
            
    <vehicle id='N_W_0' type='standard_car' route='N_W' depart='21.0' departLane='random' departSpeed='10' />
    <vehicle id='W_S_1' type='standard_car' route='W_S' depart='35.0' departLane='random' departSpeed='10' />
    <vehicle id='S_N_2' type='standard_car' route='S_N' depart='41.0' departLane='random' departSpeed='10' />
    <vehicle id='E_W_3' type='standard_car' route='E_W' depart='44.0' departLane='random' departSpeed='10' />
    <vehicle id='E_W_4' type='standard_car' route='E_W' depart='50.0' departLane='random' departSpeed='10' />
    <vehicle id='W_S_5' type='standard_car' route='W_S' depart='59.0' departLane='random' departSpeed='10' />
    <vehicle id='W_S_6' type='standard_car' route='W_S' depart='59.0' departLane='random' departSpeed='10' />
    <vehicle id='N_S_7' type='standard_car' route='N_S' depart='61.0' departLane='random' departSpeed='10' />
    <vehicle id='S_N_8' type='standard_car' route='S_N' depart='66.0' departLane='random' departSpeed='10' />
    <vehicle id='E_N_9' type='standard_car' route='E_N' depart='70.0' departLane='random' departSpeed='10' />
    <vehicle id='N_S_10' type='standard_car' route='N_S' depart='75.0' departLane='random' departSpeed='10' />
    <vehicle id='E_N_11' type='standard_car' route='E_N' depart='76.0' departLane='random' departSpeed='10' />
    <vehicle id='E_W_12' type='standard_car' route='E_W' depart='77.0' departLane='random' departSpeed='10' />
    <vehicle id='N_S_13' type='standard_car' route='N_S' depart='79.0' departLane='random' departSpeed='10' />
    <vehicle id='S_E_14' type='standard_car' route='S_E' depart='81.0' departLane='random' departSpeed='10' />
    <vehicle id='W_S_15' type='standard_car' route='W_S' depart='85.0' departLane='random' departSpeed='10' />
    <vehicle id='N_S_16' type='standard_car' route='N_S' depart='85.0' departLane='random' departSpeed='10' />
    <vehicle id='S_E_17' type='standard_car' route='S_E' depart='86.0' departLane='random' departSpeed='10' />
    <vehicle id='S_N_18' type='standard_car' route='S_N' depart='92.0' departLane='random' departSpeed='10' />
    <vehicle id='N_S_19' type='standard_car' route='N_S' depart='102.0' departLane='random' departSpeed='10' />
    <vehicle id='N_W_20' type='standard_car' route='N_W' depart='104.0' departLane='random' departSpeed='10' />
    <vehicle id='W_S_21' type='standard_car' route='W_S' depart='107.0' departLane='random' departSpeed='10' />
    <vehicle id='E_N_22' type='standard_car' route='E_N' depart='110.0' departLane='random' departSpeed='10' />
    <vehicle id='W_E_23' type='standard_car' route='W_E' depart='114.0' departLane='random' departSpeed='10' />
    <vehicle id='W_S_24' type='standard_car' route='W_S' depart='124.0' departLane='random' departSpeed='10' />
    <vehicle id='N_S_25' type='standard_car' route='N_S' depart='125.0' departLane='random' departSpeed='10' />
    <vehicle id='S_E_26' type='standard_car' route='S_E' depart='127.0' departLane='random' departSpeed='10' />
    <vehicle id='E_W_27' type='standard_car' route='E_W' depart='127.0' departLane='random' departSpeed='10' />
    <vehicle id='W_E_28' type='standard_car' route='W_E' depart='128.0' departLane='random' departSpeed='10' />
    <vehicle id='S_E_29' type='standard_car' route='S_E' depart='128.0' departLane='random' departSpeed='10' />
    <vehicle id='W_E_30' type='standard_car' route='W_E' depart='135.0' departLane='random' departSpeed='10' />
    <vehicle id='N_S_31' type='standard_car' route='N_S' depart='136.0' departLane='random' departSpeed='10' />
    <vehicle id='N_S_32' type='standard_car' route='N_S' depart='140.0' departLane='random' departSpeed='10' />
    <vehicle id='N_S_33' type='standard_car' route='N_S' depart='141.0' departLane='random' departSpeed='10' />
    <vehicle id='N_S_34' type='standard_car' route='N_S' depart='142.0' departLane='random' departSpeed='10' />
    <vehicle id='W_S_35' type='standard_car' route='W_S' depart='144.0' departLane='random' departSpeed='10' />
    <vehicle id='N_W_36' type='standard_car' route='N_W' depart='145.0' departLane='random' departSpeed='10' />
    <vehicle id='S_N_37' type='standard_car' route='S_N' depart='146.0' departLane='random' departSpeed='10' />
    <vehicle id='N_S_38' type='standard_car' route='N_S' depart='151.0' departLane='random' departSpeed='10' />
    <vehicle id='W_E_39' type='standard_car' route='W_E' depart='153.0' departLane='random' departSpeed='10' />
    <vehicle id='W_S_40' type='standard_car' route='W_S' depart='156.0' departLane='random' departSpeed='10' />
    <vehicle id='N_S_41' type='standard_car' route='N_S' depart='159.0' departLane='random' departSpeed='10' />
    <vehicle id='W_E_42' type='standard_car' route='W_E' depart='160.0' departLane='random' departSpeed='10' />
    <vehicle id='N_W_43' type='standard_car' route='N_W' depart='162.0' departLane='random' departSpeed='10' />
    <vehicle id='N_W_44' type='standard_car' route='N_W' depart='162.0' departLane='random' departSpeed='10' />
    <vehicle id='S_N_45' type='standard_car' route='S_N' depart='162.0' departLane='random' departSpeed='10' />
    <vehicle id='E_N_46' type='standard_car' route='E_N' depart='163.0' departLane='random' departSpeed='10' />
    <vehicle id='N_W_47' type='standard_car' route='N_W' depart='165.0' departLane='random' departSpeed='10' />
    <vehicle id='S_N_48' type='standard_car' route='S_N' depart='170.0' departLane='random' departSpeed='10' />
    <vehicle id='E_W_49' type='standard_car' route='E_W' depart='171.0' departLane='random' departSpeed='10' />
    <vehicle id='N_S_50' type='standard_car' route='N_S' depart='172.0' departLane='random' departSpeed='10' />
    <vehicle id='S_N_51' type='standard_car' route='S_N' depart='172.0' departLane='random' departSpeed='10' />
    <vehicle id='W_E_52' type='standard_car' route='W_E' depart='181.0' departLane='random' departSpeed='10' />
    <vehicle id='S_E_53' type='standard_car' route='S_E' depart='184.0' departLane='random' departSpeed='10' />
    <vehicle id='E_W_54' type='standard_car' route='E_W' depart='184.0' departLane='random' departSpeed='10' />
    <vehicle id='E_W_55' type='standard_car' route='E_W' depart='186.0' departLane='random' departSpeed='10' />
    <vehicle id='N_W_56' type='standard_car' route='N_W' depart='187.0' departLane='random' departSpeed='10' />
    <vehicle id='N_W_57' type='standard_car' route='N_W' depart='191.0' departLane='random' departSpeed='10' />
    <vehicle id='N_S_58' type='standard_car' route='N_S' depart='193.0' departLane='random' departSpeed='10' />
    <vehicle id='W_S_59' type='standard_car' route='W_S' depart='200.0' departLane='random' departSpeed='10' />
    <vehicle id='N_W_60' type='standard_car' route='N_W' depart='206.0' departLane='random' departSpeed='10' />
    <vehicle id='N_W_61' type='standard_car' route='N_W' depart='206.0' departLane='random' departSpeed='10' />
    <vehicle id='S_E_62' type='standard_car' route='S_E' depart='209.0' departLane='random' departSpeed='10' />
    <vehicle id='S_N_63' type='standard_car' route='S_N' depart='210.0' departLane='random' departSpeed='10' />
    <vehicle id='S_N_64' type='standard_car' route='S_N' depart='211.0' departLane='random' departSpeed='10' />
    <vehicle id='E_W_65' type='standard_car' route='E_W' depart='214.0' departLane='random' departSpeed='10' />
    <vehicle id='S_E_66' type='standard_car' route='S_E' depart='215.0' departLane='random' departSpeed='10' />
    <vehicle id='E_N_67' type='standard_car' route='E_N' depart='217.0' departLane='random' departSpeed='10' />
    <vehicle id='N_W_68' type='standard_car' route='N_W' depart='218.0' departLane='random' departSpeed='10' />
    <vehicle id='E_W_69' type='standard_car' route='E_W' depart='219.0' departLane='random' departSpeed='10' />
    <vehicle id='E_W_70' type='standard_car' route='E_W' depart='223.0' departLane='random' departSpeed='10' />
    <vehicle id='E_W_71' type='standard_car' route='E_W' depart='224.0' departLane='random' departSpeed='10' />
    <vehicle id='E_W_72' type='standard_car' route='E_W' depart='225.0' departLane='random' departSpeed='10' />
    <vehicle id='W_S_73' type='standard_car' route='W_S' depart='225.0' departLane='random' departSpeed='10' />
    <vehicle id='E_W_74' type='standard_car' route='E_W' depart='226.0' departLane='random' departSpeed='10' />
    <vehicle id='W_E_75' type='standard_car' route='W_E' depart='231.0' departLane='random' departSpeed='10' />
    <vehicle id='E_N_76' type='standard_car' route='E_N' depart='232.0' departLane='random' departSpeed='10' />
    <vehicle id='W_E_77' type='standard_car' route='W_E' depart='235.0' departLane='random' departSpeed='10' />
    <vehicle id='W_S_78' type='standard_car' route='W_S' depart='236.0' departLane='random' departSpeed='10' />
    <vehicle id='E_N_79' type='standard_car' route='E_N' depart='236.0' departLane='random' departSpeed='10' />
    <vehicle id='E_W_80' type='standard_car' route='E_W' depart='242.0' departLane='random' departSpeed='10' />
    <vehicle id='S_N_81' type='standard_car' route='S_N' depart='244.0' departLane='random' departSpeed='10' />
    <vehicle id='E_W_82' type='standard_car' route='E_W' depart='247.0' departLane='random' departSpeed='10' />
    <vehicle id='E_N_83' type='standard_car' route='E_N' depart='251.0' departLane='random' departSpeed='10' />
    <vehicle id='E_W_84' type='standard_car' route='E_W' depart='255.0' departLane='random' departSpeed='10' />
    <vehicle id='S_E_85' type='standard_car' route='S_E' depart='255.0' departLane='random' departSpeed='10' />
    <vehicle id='S_N_86' type='standard_car' route='S_N' depart='257.0' departLane='random' departSpeed='10' />
    <vehicle id='N_S_87' type='standard_car' route='N_S' depart='261.0' departLane='random' departSpeed='10' />
    <vehicle id='W_S_88' type='standard_car' route='W_S' depart='263.0' departLane='random' departSpeed='10' />
    <vehicle id='S_E_89' type='standard_car' route='S_E' depart='266.0' departLane='random' departSpeed='10' />
    <vehicle id='W_S_90' type='standard_car' route='W_S' depart='271.0' departLane='random' departSpeed='10' />
    <vehicle id='N_S_91' type='standard_car' route='N_S' depart='272.0' departLane='random' departSpeed='10' />
    <vehicle id='S_E_92' type='standard_car' route='S_E' depart='273.0' departLane='random' departSpeed='10' />
    <vehicle id='S_N_93' type='standard_car' route='S_N' depart='274.0' departLane='random' departSpeed='10' />
    <vehicle id='W_E_94' type='standard_car' route='W_E' depart='277.0' departLane='random' departSpeed='10' />
    <vehicle id='E_W_95' type='standard_car' route='E_W' depart='278.0' departLane='random' departSpeed='10' />
    <vehicle id='E_W_96' type='standard_car' route='E_W' depart='278.0' departLane='random' departSpeed='10' />
    <vehicle id='E_W_97' type='standard_car' route='E_W' depart='278.0' departLane='random' departSpeed='10' />
    <vehicle id='N_S_98' type='standard_car' route='N_S' depart='279.0' departLane='random' departSpeed='10' />
    <vehicle id='E_N_99' type='standard_car' route='E_N' depart='279.0' departLane='random' departSpeed='10' />
    <vehicle id='N_S_100' type='standard_car' route='N_S' depart='282.0' departLane='random' departSpeed='10' />
    <vehicle id='E_N_101' type='standard_car' route='E_N' depart='286.0' departLane='random' departSpeed='10' />
    <vehicle id='W_E_102' type='standard_car' route='W_E' depart='288.0' departLane='random' departSpeed='10' />
    <vehicle id='E_W_103' type='standard_car' route='E_W' depart='288.0' departLane='random' departSpeed='10' />
    <vehicle id='E_N_104' type='standard_car' route='E_N' depart='289.0' departLane='random' departSpeed='10' />
    <vehicle id='N_W_105' type='standard_car' route='N_W' depart='291.0' departLane='random' departSpeed='10' />
    <vehicle id='S_N_106' type='standard_car' route='S_N' depart='292.0' departLane='random' departSpeed='10' />
    <vehicle id='E_N_107' type='standard_car' route='E_N' depart='292.0' departLane='random' departSpeed='10' />
    <vehicle id='E_W_108' type='standard_car' route='E_W' depart='294.0' departLane='random' departSpeed='10' />
    <vehicle id='W_S_109' type='standard_car' route='W_S' depart='295.0' departLane='random' departSpeed='10' />
    <vehicle id='E_N_110' type='standard_car' route='E_N' depart='296.0' departLane='random' departSpeed='10' />
    <vehicle id='E_W_111' type='standard_car' route='E_W' depart='296.0' departLane='random' departSpeed='10' />
    <vehicle id='E_N_112' type='standard_car' route='E_N' depart='297.0' departLane='random' departSpeed='10' />
    <vehicle id='N_W_113' type='standard_car' route='N_W' depart='297.0' departLane='random' departSpeed='10' />
    <vehicle id='W_S_114' type='standard_car' route='W_S' depart='298.0' departLane='random' departSpeed='10' />
    <vehicle id='N_W_115' type='standard_car' route='N_W' depart='298.0' departLane='random' departSpeed='10' />
    <vehicle id='W_E_116' type='standard_car' route='W_E' depart='300.0' departLane='random' departSpeed='10' />
    <vehicle id='W_E_117' type='standard_car' route='W_E' depart='304.0' departLane='random' departSpeed='10' />
    <vehicle id='S_E_118' type='standard_car' route='S_E' depart='305.0' departLane='random' departSpeed='10' />
    <vehicle id='W_E_119' type='standard_car' route='W_E' depart='306.0' departLane='random' departSpeed='10' />
    <vehicle id='S_N_120' type='standard_car' route='S_N' depart='306.0' departLane='random' departSpeed='10' />
    <vehicle id='W_S_121' type='standard_car' route='W_S' depart='307.0' departLane='random' departSpeed='10' />
    <vehicle id='N_S_122' type='standard_car' route='N_S' depart='307.0' departLane='random' departSpeed='10' />
    <vehicle id='S_E_123' type='standard_car' route='S_E' depart='309.0' departLane='random' departSpeed='10' />
    <vehicle id='W_E_124' type='standard_car' route='W_E' depart='310.0' departLane='random' departSpeed='10' />
    <vehicle id='E_N_125' type='standard_car' route='E_N' depart='313.0' departLane='random' departSpeed='10' />
    <vehicle id='E_W_126' type='standard_car' route='E_W' depart='317.0' departLane='random' departSpeed='10' />
    <vehicle id='E_W_127' type='standard_car' route='E_W' depart='318.0' departLane='random' departSpeed='10' />
    <vehicle id='E_N_128' type='standard_car' route='E_N' depart='318.0' departLane='random' departSpeed='10' />
    <vehicle id='S_N_129' type='standard_car' route='S_N' depart='319.0' departLane='random' departSpeed='10' />
    <vehicle id='S_E_130' type='standard_car' route='S_E' depart='323.0' departLane='random' departSpeed='10' />
    <vehicle id='N_S_131' type='standard_car' route='N_S' depart='323.0' departLane='random' departSpeed='10' />
    <vehicle id='E_W_132' type='standard_car' route='E_W' depart='330.0' departLane='random' departSpeed='10' />
    <vehicle id='N_W_133' type='standard_car' route='N_W' depart='331.0' departLane='random' departSpeed='10' />
    <vehicle id='W_E_134' type='standard_car' route='W_E' depart='332.0' departLane='random' departSpeed='10' />
    <vehicle id='S_N_135' type='standard_car' route='S_N' depart='333.0' departLane='random' departSpeed='10' />
    <vehicle id='E_N_136' type='standard_car' route='E_N' depart='337.0' departLane='random' departSpeed='10' />
    <vehicle id='E_W_137' type='standard_car' route='E_W' depart='338.0' departLane='random' departSpeed='10' />
    <vehicle id='S_N_138' type='standard_car' route='S_N' depart='338.0' departLane='random' departSpeed='10' />
    <vehicle id='N_S_139' type='standard_car' route='N_S' depart='340.0' departLane='random' departSpeed='10' />
    <vehicle id='E_W_140' type='standard_car' route='E_W' depart='342.0' departLane='random' departSpeed='10' />
    <vehicle id='S_N_141' type='standard_car' route='S_N' depart='343.0' departLane='random' departSpeed='10' />
    <vehicle id='S_N_142' type='standard_car' route='S_N' depart='345.0' departLane='random' departSpeed='10' />
    <vehicle id='N_W_143' type='standard_car' route='N_W' depart='346.0' departLane='random' departSpeed='10' />
    <vehicle id='E_N_144' type='standard_car' route='E_N' depart='346.0' departLane='random' departSpeed='10' />
    <vehicle id='E_W_145' type='standard_car' route='E_W' depart='347.0' departLane='random' departSpeed='10' />
    <vehicle id='W_E_146' type='standard_car' route='W_E' depart='348.0' departLane='random' departSpeed='10' />
    <vehicle id='W_S_147' type='standard_car' route='W_S' depart='350.0' departLane='random' departSpeed='10' />
    <vehicle id='E_N_148' type='standard_car' route='E_N' depart='352.0' departLane='random' departSpeed='10' />
    <vehicle id='N_S_149' type='standard_car' route='N_S' depart='354.0' departLane='random' departSpeed='10' />
    <vehicle id='E_W_150' type='standard_car' route='E_W' depart='357.0' departLane='random' departSpeed='10' />
    <vehicle id='S_E_151' type='standard_car' route='S_E' depart='359.0' departLane='random' departSpeed='10' />
    <vehicle id='S_N_152' type='standard_car' route='S_N' depart='359.0' departLane='random' departSpeed='10' />
    <vehicle id='E_W_153' type='standard_car' route='E_W' depart='360.0' departLane='random' departSpeed='10' />
    <vehicle id='E_W_154' type='standard_car' route='E_W' depart='360.0' departLane='random' departSpeed='10' />
    <vehicle id='N_S_155' type='standard_car' route='N_S' depart='362.0' departLane='random' departSpeed='10' />
    <vehicle id='E_N_156' type='standard_car' route='E_N' depart='363.0' departLane='random' departSpeed='10' />
    <vehicle id='W_E_157' type='standard_car' route='W_E' depart='363.0' departLane='random' departSpeed='10' />
    <vehicle id='S_E_158' type='standard_car' route='S_E' depart='364.0' departLane='random' departSpeed='10' />
    <vehicle id='N_W_159' type='standard_car' route='N_W' depart='365.0' departLane='random' departSpeed='10' />
    <vehicle id='N_S_160' type='standard_car' route='N_S' depart='366.0' departLane='random' departSpeed='10' />
    <vehicle id='E_W_161' type='standard_car' route='E_W' depart='367.0' departLane='random' departSpeed='10' />
    <vehicle id='N_S_162' type='standard_car' route='N_S' depart='367.0' departLane='random' departSpeed='10' />
    <vehicle id='W_S_163' type='standard_car' route='W_S' depart='367.0' departLane='random' departSpeed='10' />
    <vehicle id='E_W_164' type='standard_car' route='E_W' depart='368.0' departLane='random' departSpeed='10' />
    <vehicle id='N_W_165' type='standard_car' route='N_W' depart='370.0' departLane='random' departSpeed='10' />
    <vehicle id='W_E_166' type='standard_car' route='W_E' depart='374.0' departLane='random' departSpeed='10' />
    <vehicle id='E_N_167' type='standard_car' route='E_N' depart='376.0' departLane='random' departSpeed='10' />
    <vehicle id='N_W_168' type='standard_car' route='N_W' depart='377.0' departLane='random' departSpeed='10' />
    <vehicle id='E_W_169' type='standard_car' route='E_W' depart='378.0' departLane='random' departSpeed='10' />
    <vehicle id='S_N_170' type='standard_car' route='S_N' depart='380.0' departLane='random' departSpeed='10' />
    <vehicle id='E_W_171' type='standard_car' route='E_W' depart='380.0' departLane='random' departSpeed='10' />
    <vehicle id='W_S_172' type='standard_car' route='W_S' depart='382.0' departLane='random' departSpeed='10' />
    <vehicle id='E_W_173' type='standard_car' route='E_W' depart='383.0' departLane='random' departSpeed='10' />
    <vehicle id='W_S_174' type='standard_car' route='W_S' depart='383.0' departLane='random' departSpeed='10' />
    <vehicle id='S_N_175' type='standard_car' route='S_N' depart='384.0' departLane='random' departSpeed='10' />
    <vehicle id='S_E_176' type='standard_car' route='S_E' depart='385.0' departLane='random' departSpeed='10' />
    <vehicle id='E_W_177' type='standard_car' route='E_W' depart='387.0' departLane='random' departSpeed='10' />
    <vehicle id='S_N_178' type='standard_car' route='S_N' depart='387.0' departLane='random' departSpeed='10' />
    <vehicle id='S_N_179' type='standard_car' route='S_N' depart='389.0' departLane='random' departSpeed='10' />
    <vehicle id='W_E_180' type='standard_car' route='W_E' depart='390.0' departLane='random' departSpeed='10' />
    <vehicle id='N_W_181' type='standard_car' route='N_W' depart='390.0' departLane='random' departSpeed='10' />
    <vehicle id='S_N_182' type='standard_car' route='S_N' depart='392.0' departLane='random' departSpeed='10' />
    <vehicle id='S_E_183' type='standard_car' route='S_E' depart='395.0' departLane='random' departSpeed='10' />
    <vehicle id='S_N_184' type='standard_car' route='S_N' depart='396.0' departLane='random' departSpeed='10' />
    <vehicle id='S_N_185' type='standard_car' route='S_N' depart='398.0' departLane='random' departSpeed='10' />
    <vehicle id='E_N_186' type='standard_car' route='E_N' depart='398.0' departLane='random' departSpeed='10' />
    <vehicle id='E_N_187' type='standard_car' route='E_N' depart='398.0' departLane='random' departSpeed='10' />
    <vehicle id='W_E_188' type='standard_car' route='W_E' depart='400.0' departLane='random' departSpeed='10' />
    <vehicle id='S_N_189' type='standard_car' route='S_N' depart='400.0' departLane='random' departSpeed='10' />
    <vehicle id='S_N_190' type='standard_car' route='S_N' depart='401.0' departLane='random' departSpeed='10' />
    <vehicle id='W_S_191' type='standard_car' route='W_S' depart='401.0' departLane='random' departSpeed='10' />
    <vehicle id='N_S_192' type='standard_car' route='N_S' depart='402.0' departLane='random' departSpeed='10' />
    <vehicle id='W_S_193' type='standard_car' route='W_S' depart='402.0' departLane='random' departSpeed='10' />
    <vehicle id='N_S_194' type='standard_car' route='N_S' depart='403.0' departLane='random' departSpeed='10' />
    <vehicle id='N_S_195' type='standard_car' route='N_S' depart='405.0' departLane='random' departSpeed='10' />
    <vehicle id='N_W_196' type='standard_car' route='N_W' depart='405.0' departLane='random' departSpeed='10' />
    <vehicle id='S_N_197' type='standard_car' route='S_N' depart='405.0' departLane='random' departSpeed='10' />
    <vehicle id='E_N_198' type='standard_car' route='E_N' depart='406.0' departLane='random' departSpeed='10' />
    <vehicle id='W_E_199' type='standard_car' route='W_E' depart='407.0' departLane='random' departSpeed='10' />
    <vehicle id='E_W_200' type='standard_car' route='E_W' depart='407.0' departLane='random' departSpeed='10' />
    <vehicle id='N_W_201' type='standard_car' route='N_W' depart='407.0' departLane='random' departSpeed='10' />
    <vehicle id='N_W_202' type='standard_car' route='N_W' depart='410.0' departLane='random' departSpeed='10' />
    <vehicle id='N_W_203' type='standard_car' route='N_W' depart='412.0' departLane='random' departSpeed='10' />
    <vehicle id='N_S_204' type='standard_car' route='N_S' depart='415.0' departLane='random' departSpeed='10' />
    <vehicle id='N_W_205' type='standard_car' route='N_W' depart='416.0' departLane='random' departSpeed='10' />
    <vehicle id='E_N_206' type='standard_car' route='E_N' depart='417.0' departLane='random' departSpeed='10' />
    <vehicle id='N_W_207' type='standard_car' route='N_W' depart='417.0' departLane='random' departSpeed='10' />
    <vehicle id='N_W_208' type='standard_car' route='N_W' depart='419.0' departLane='random' departSpeed='10' />
    <vehicle id='N_W_209' type='standard_car' route='N_W' depart='419.0' departLane='random' departSpeed='10' />
    <vehicle id='W_S_210' type='standard_car' route='W_S' depart='420.0' departLane='random' departSpeed='10' />
    <vehicle id='S_N_211' type='standard_car' route='S_N' depart='421.0' departLane='random' departSpeed='10' />
    <vehicle id='W_E_212' type='standard_car' route='W_E' depart='421.0' departLane='random' departSpeed='10' />
    <vehicle id='W_S_213' type='standard_car' route='W_S' depart='422.0' departLane='random' departSpeed='10' />
    <vehicle id='N_W_214' type='standard_car' route='N_W' depart='423.0' departLane='random' departSpeed='10' />
    <vehicle id='S_N_215' type='standard_car' route='S_N' depart='424.0' departLane='random' departSpeed='10' />
    <vehicle id='E_W_216' type='standard_car' route='E_W' depart='424.0' departLane='random' departSpeed='10' />
    <vehicle id='N_S_217' type='standard_car' route='N_S' depart='426.0' departLane='random' departSpeed='10' />
    <vehicle id='E_W_218' type='standard_car' route='E_W' depart='427.0' departLane='random' departSpeed='10' />
    <vehicle id='W_E_219' type='standard_car' route='W_E' depart='428.0' departLane='random' departSpeed='10' />
    <vehicle id='S_E_220' type='standard_car' route='S_E' depart='429.0' departLane='random' departSpeed='10' />
    <vehicle id='N_S_221' type='standard_car' route='N_S' depart='430.0' departLane='random' departSpeed='10' />
    <vehicle id='E_W_222' type='standard_car' route='E_W' depart='431.0' departLane='random' departSpeed='10' />
    <vehicle id='N_S_223' type='standard_car' route='N_S' depart='431.0' departLane='random' departSpeed='10' />
    <vehicle id='W_E_224' type='standard_car' route='W_E' depart='432.0' departLane='random' departSpeed='10' />
    <vehicle id='W_E_225' type='standard_car' route='W_E' depart='433.0' departLane='random' departSpeed='10' />
    <vehicle id='E_W_226' type='standard_car' route='E_W' depart='433.0' departLane='random' departSpeed='10' />
    <vehicle id='W_S_227' type='standard_car' route='W_S' depart='434.0' departLane='random' departSpeed='10' />
    <vehicle id='E_N_228' type='standard_car' route='E_N' depart='435.0' departLane='random' departSpeed='10' />
    <vehicle id='N_W_229' type='standard_car' route='N_W' depart='436.0' departLane='random' departSpeed='10' />
    <vehicle id='E_N_230' type='standard_car' route='E_N' depart='437.0' departLane='random' departSpeed='10' />
    <vehicle id='S_E_231' type='standard_car' route='S_E' depart='438.0' departLane='random' departSpeed='10' />
    <vehicle id='W_E_232' type='standard_car' route='W_E' depart='439.0' departLane='random' departSpeed='10' />
    <vehicle id='W_E_233' type='standard_car' route='W_E' depart='440.0' departLane='random' departSpeed='10' />
    <vehicle id='W_S_234' type='standard_car' route='W_S' depart='441.0' departLane='random' departSpeed='10' />
    <vehicle id='W_E_235' type='standard_car' route='W_E' depart='442.0' departLane='random' departSpeed='10' />
    <vehicle id='S_N_236' type='standard_car' route='S_N' depart='443.0' departLane='random' departSpeed='10' />
    <vehicle id='W_S_237' type='standard_car' route='W_S' depart='445.0' departLane='random' departSpeed='10' />
    <vehicle id='S_E_238' type='standard_car' route='S_E' depart='447.0' departLane='random' departSpeed='10' />
    <vehicle id='W_S_239' type='standard_car' route='W_S' depart='448.0' departLane='random' departSpeed='10' />
    <vehicle id='S_E_240' type='standard_car' route='S_E' depart='450.0' departLane='random' departSpeed='10' />
    <vehicle id='S_N_241' type='standard_car' route='S_N' depart='450.0' departLane='random' departSpeed='10' />
    <vehicle id='S_N_242' type='standard_car' route='S_N' depart='450.0' departLane='random' departSpeed='10' />
    <vehicle id='S_N_243' type='standard_car' route='S_N' depart='451.0' departLane='random' departSpeed='10' />
    <vehicle id='S_E_244' type='standard_car' route='S_E' depart='451.0' departLane='random' departSpeed='10' />
    <vehicle id='S_N_245' type='standard_car' route='S_N' depart='453.0' departLane='random' departSpeed='10' />
    <vehicle id='S_N_246' type='standard_car' route='S_N' depart='454.0' departLane='random' departSpeed='10' />
    <vehicle id='S_E_247' type='standard_car' route='S_E' depart='454.0' departLane='random' departSpeed='10' />
    <vehicle id='S_N_248' type='standard_car' route='S_N' depart='456.0' departLane='random' departSpeed='10' />
    <vehicle id='E_N_249' type='standard_car' route='E_N' depart='457.0' departLane='random' departSpeed='10' />
    <vehicle id='S_E_250' type='standard_car' route='S_E' depart='457.0' departLane='random' departSpeed='10' />
    <vehicle id='N_W_251' type='standard_car' route='N_W' depart='458.0' departLane='random' departSpeed='10' />
    <vehicle id='N_S_252' type='standard_car' route='N_S' depart='461.0' departLane='random' departSpeed='10' />
    <vehicle id='W_E_253' type='standard_car' route='W_E' depart='463.0' departLane='random' departSpeed='10' />
    <vehicle id='E_N_254' type='standard_car' route='E_N' depart='463.0' departLane='random' departSpeed='10' />
    <vehicle id='W_S_255' type='standard_car' route='W_S' depart='464.0' departLane='random' departSpeed='10' />
    <vehicle id='S_E_256' type='standard_car' route='S_E' depart='465.0' departLane='random' departSpeed='10' />
    <vehicle id='E_W_257' type='standard_car' route='E_W' depart='468.0' departLane='random' departSpeed='10' />
    <vehicle id='S_E_258' type='standard_car' route='S_E' depart='469.0' departLane='random' departSpeed='10' />
    <vehicle id='E_N_259' type='standard_car' route='E_N' depart='470.0' departLane='random' departSpeed='10' />