<routes>
    <vType id="standard_car" length="5.0" maxSpeed="15" minGap="2.5" accel="2.0" decel="4.5" />
    <route id="N_S" edges="road_1_2_3 road_1_1_3"/>
    <route id="N_E" edges="road_1_2_3 road_1_1_0"/>
    <route id="N_W" edges="road_1_2_3 road_1_1_2"/>
    <route id="S_W" edges="road_1_0_1 road_1_1_2"/>
    <route id="S_E" edges="road_1_0_1 road_1_1_0"/>
    <route id="S_N" edges="road_1_0_1 road_1_1_1"/>

    <route id="W_E" edges="road_0_1_0 road_1_1_0"/>
    <route id="W_N" edges="road_0_1_0 road_1_1_1"/>
    <route id="W_S" edges="road_0_1_0 road_1_1_3"/>
    <route id="E_N" edges="road_2_1_2 road_1_1_1"/>
    <route id="E_S" edges="road_2_1_2 road_1_1_3"/>
    <route id="E_W" edges="road_2_1_2 road_1_1_2"/>
            
    <vehicle id='E_W_0' type='standard_car' route='E_W' depart='34.0' departLane='random' departSpeed='10' />
    <vehicle id='E_N_1' type='standard_car' route='E_N' depart='44.0' departLane='random' departSpeed='10' />
    <vehicle id='W_S_2' type='standard_car' route='W_S' depart='73.0' departLane='random' departSpeed='10' />
    <vehicle id='W_E_3' type='standard_car' route='W_E' depart='95.0' departLane='random' departSpeed='10' />
    <vehicle id='W_S_4' type='standard_car' route='W_S' depart='117.0' departLane='random' departSpeed='10' />
    <vehicle id='N_S_5' type='standard_car' route='N_S' depart='118.0' departLane='random' departSpeed='10' />
    <vehicle id='S_N_6' type='standard_car' route='S_N' depart='120.0' departLane='random' departSpeed='10' />
    <vehicle id='S_E_7' type='standard_car' route='S_E' depart='124.0' departLane='random' departSpeed='10' />
    <vehicle id='E_W_8' type='standard_car' route='E_W' depart='127.0' departLane='random' departSpeed='10' />
    <vehicle id='E_W_9' type='standard_car' route='E_W' depart='140.0' departLane='random' departSpeed='10' />
    <vehicle id='E_N_10' type='standard_car' route='E_N' depart='156.0' departLane='random' departSpeed='10' />
    <vehicle id='E_N_11' type='standard_car' route='E_N' depart='158.0' departLane='random' departSpeed='10' />
    <vehicle id='W_E_12' type='standard_car' route='W_E' depart='159.0' departLane='random' departSpeed='10' />
    <vehicle id='W_E_13' type='standard_car' route='W_E' depart='159.0' departLane='random' departSpeed='10' />
    <vehicle id='S_N_14' type='standard_car' route='S_N' depart='173.0' departLane='random' departSpeed='10' />
    <vehicle id='E_W_15' type='standard_car' route='E_W' depart='176.0' departLane='random' departSpeed='10' />
    <vehicle id='W_E_16' type='standard_car' route='W_E' depart='177.0' departLane='random' departSpeed='10' />
    <vehicle id='E_W_17' type='standard_car' route='E_W' depart='178.0' departLane='random' departSpeed='10' />
    <vehicle id='E_W_18' type='standard_car' route='E_W' depart='186.0' departLane='random' departSpeed='10' />
    <vehicle id='N_S_19' type='standard_car' route='N_S' depart='190.0' departLane='random' departSpeed='10' />
    <vehicle id='S_N_20' type='standard_car' route='S_N' depart='199.0' departLane='random' departSpeed='10' />
    <vehicle id='N_W_21' type='standard_car' route='N_W' depart='200.0' departLane='random' departSpeed='10' />
    <vehicle id='W_E_22' type='standard_car' route='W_E' depart='201.0' departLane='random' departSpeed='10' />
    <vehicle id='S_N_23' type='standard_car' route='S_N' depart='203.0' departLane='random' departSpeed='10' />
    <vehicle id='N_W_24' type='standard_car' route='N_W' depart='207.0' departLane='random' departSpeed='10' />
    <vehicle id='S_E_25' type='standard_car' route='S_E' depart='209.0' departLane='random' departSpeed='10' />
    <vehicle id='N_S_26' type='standard_car' route='N_S' depart='214.0' departLane='random' departSpeed='10' />
    <vehicle id='S_E_27' type='standard_car' route='S_E' depart='215.0' departLane='random' departSpeed='10' />
    <vehicle id='S_N_28' type='standard_car' route='S_N' depart='218.0' departLane='random' departSpeed='10' />
    <vehicle id='E_W_29' type='standard_car' route='E_W' depart='220.0' departLane='random' departSpeed='10' />
    <vehicle id='S_N_30' type='standard_car' route='S_N' depart='220.0' departLane='random' departSpeed='10' />
    <vehicle id='S_N_31' type='standard_car' route='S_N' depart='223.0' departLane='random' departSpeed='10' />
    <vehicle id='S_E_32' type='standard_car' route='S_E' depart='230.0' departLane='random' departSpeed='10' />
    <vehicle id='N_W_33' type='standard_car' route='N_W' depart='237.0' departLane='random' departSpeed='10' />
    <vehicle id='W_E_34' type='standard_car' route='W_E' depart='247.0' departLane='random' departSpeed='10' />
    <vehicle id='S_N_35' type='standard_car' route='S_N' depart='259.0' departLane='random' departSpeed='10' />
    <vehicle id='S_N_36' type='standard_car' route='S_N' depart='261.0' departLane='random' departSpeed='10' />
    <vehicle id='W_E_37' type='standard_car' route='W_E' depart='262.0' departLane='random' departSpeed='10' />
    <vehicle id='S_N_38' type='standard_car' route='S_N' depart='274.0' departLane='random' departSpeed='10' />
    <vehicle id='N_W_39' type='standard_car' route='N_W' depart='274.0' departLane='random' departSpeed='10' />
    <vehicle id='E_W_40' type='standard_car' route='E_W' depart='283.0' departLane='random' departSpeed='10' />
    <vehicle id='E_W_41' type='standard_car' route='E_W' depart='284.0' departLane='random' departSpeed='10' />
    <vehicle id='W_E_42' type='standard_car' route='W_E' depart='286.0' departLane='random' departSpeed='10' />
    <vehicle id='S_N_43' type='standard_car' route='S_N' depart='288.0' departLane='random' departSpeed='10' />
    <vehicle id='N_S_44' type='standard_car' route='N_S' depart='289.0' departLane='random' departSpeed='10' />
    <vehicle id='S_E_45' type='standard_car' route='S_E' depart='291.0' departLane='random' departSpeed='10' />
    <vehicle id='E_W_46' type='standard_car' route='E_W' depart='300.0' departLane='random' departSpeed='10' />
    <vehicle id='E_W_47' type='standard_car' route='E_W' depart='302.0' departLane='random' departSpeed='10' />
    <vehicle id='E_W_48' type='standard_car' route='E_W' depart='303.0' departLane='random' departSpeed='10' />
    <vehicle id='N_W_49' type='standard_car' route='N_W' depart='303.0' departLane='random' departSpeed='10' />
    <vehicle id='N_W_50' type='standard_car' route='N_W' depart='305.0' departLane='random' departSpeed='10' />
    <vehicle id='E_W_51' type='standard_car' route='E_W' depart='310.0' departLane='random' departSpeed='10' />
    <vehicle id='E_W_52' type='standard_car' route='E_W' depart='314.0' departLane='random' departSpeed='10' />
    <vehicle id='S_E_53' type='standard_car' route='S_E' depart='321.0' departLane='random' departSpeed='10' />
    <vehicle id='N_S_54' type='standard_car' route='N_S' depart='321.0' departLane='random' departSpeed='10' />
    <vehicle id='W_E_55' type='standard_car' route='W_E' depart='324.0' departLane='random' departSpeed='10' />
    <vehicle id='S_E_56' type='standard_car' route='S_E' depart='330.0' departLane='random' departSpeed='10' />
    <vehicle id='E_W_57' type='standard_car' route='E_W' depart='332.0' departLane='random' departSpeed='10' />
    <vehicle id='W_S_58' type='standard_car' route='W_S' depart='333.0' departLane='random' departSpeed='10' />
    <vehicle id='N_S_59' type='standard_car' route='N_S' depart='334.0' departLane='random' departSpeed='10' />
    <vehicle id='W_S_60' type='standard_car' route='W_S' depart='334.0' departLane='random' departSpeed='10' />
    <vehicle id='S_E_61' type='standard_car' route='S_E' depart='340.0' departLane='random' departSpeed='10' />
    <vehicle id='N_S_62' type='standard_car' route='N_S' depart='342.0' departLane='random' departSpeed='10' />
    <vehicle id='S_N_63' type='standard_car' route='S_N' depart='347.0' departLane='random' departSpeed='10' />
    <vehicle id='S_N_64' type='standard_car' route='S_N' depart='347.0' departLane='random' departSpeed='10' />
    <vehicle id='S_E_65' type='standard_car' route='S_E' depart='352.0' departLane='random' departSpeed='10' />
    <vehicle id='W_E_66' type='standard_car' route='W_E' depart='355.0' departLane='random' departSpeed='10' />
    <vehicle id='S_E_67' type='standard_car' route='S_E' depart='360.0' departLane='random' departSpeed='10' />
    <vehicle id='W_E_68' type='standard_car' route='W_E' depart='360.0' departLane='random' departSpeed='10' />
    <vehicle id='S_N_69' type='standard_car' route='S_N' depart='363.0' departLane='random' departSpeed='10' />
    <vehicle id='W_E_70' type='standard_car' route='W_E' depart='366.0' departLane='random' departSpeed='10' />
    <vehicle id='S_E_71' type='standard_car' route='S_E' depart='370.0' departLane='random' departSpeed='10' />
    <vehicle id='W_E_72' type='standard_car' route='W_E' depart='374.0' departLane='random' departSpeed='10' />
    <vehicle id='E_W_73' type='standard_car' route='E_W' depart='376.0' departLane='random' departSpeed='10' />
    <vehicle id='W_S_74' type='standard_car' route='W_S' depart='378.0' departLane='random' departSpeed='10' />
    <vehicle id='E_N_75' type='standard_car' route='E_N' depart='383.0' departLane='random' departSpeed='10' />
    <vehicle id='W_E_76' type='standard_car' route='W_E' depart='385.0' departLane='random' departSpeed='10' />
    <vehicle id='N_S_77' type='standard_car' route='N_S' depart='388.0' departLane='random' departSpeed='10' />
    <vehicle id='E_N_78' type='standard_car' route='E_N' depart='392.0' departLane='random' departSpeed='10' />
    <vehicle id='S_E_79' type='standard_car' route='S_E' depart='396.0' departLane='random' departSpeed='10' />
    <vehicle id='W_E_80' type='standard_car' route='W_E' depart='396.0' departLane='random' departSpeed='10' />
    <vehicle id='E_W_81' type='standard_car' route='E_W' depart='401.0' departLane='random' departSpeed='10' />
    <vehicle id='W_E_82' type='standard_car' route='W_E' depart='407.0' departLane='random' departSpeed='10' />
    <vehicle id='E_W_83' type='standard_car' route='E_W' depart='408.0' departLane='random' departSpeed='10' />
    <vehicle id='S_E_84' type='standard_car' route='S_E' depart='411.0' departLane='random' departSpeed='10' />
    <vehicle id='W_E_85' type='standard_car' route='W_E' depart='413.0' departLane='random' departSpeed='10' />
    <vehicle id='S_N_86' type='standard_car' route='S_N' depart='414.0' departLane='random' departSpeed='10' />
    <vehicle id='E_W_87' type='standard_car' route='E_W' depart='418.0' departLane='random' departSpeed='10' />
    <vehicle id='S_N_88' type='standard_car' route='S_N' depart='418.0' departLane='random' departSpeed='10' />
    <vehicle id='S_N_89' type='standard_car' route='S_N' depart='419.0' departLane='random' departSpeed='10' />
    <vehicle id='E_W_90' type='standard_car' route='E_W' depart='420.0' departLane='random' departSpeed='10' />
    <vehicle id='S_E_91' type='standard_car' route='S_E' depart='421.0' departLane='random' departSpeed='10' />
    <vehicle id='E_W_92' type='standard_car' route='E_W' depart='422.0' departLane='random' departSpeed='10' />
    <vehicle id='W_S_93' type='standard_car' route='W_S' depart='423.0' departLane='random' departSpeed='10' />
    <vehicle id='E_W_94' type='standard_car' route='E_W' depart='424.0' departLane='random' departSpeed='10' />
    <vehicle id='S_N_95' type='standard_car' route='S_N' depart='426.0' departLane='random' departSpeed='10' />
    <vehicle id='E_W_96' type='standard_car' route='E_W' depart='427.0' departLane='random' departSpeed='10' />
    <vehicle id='N_S_97' type='standard_car' route='N_S' depart='428.0' departLane='random' departSpeed='10' />
    <vehicle id='E_N_98' type='standard_car' route='E_N' depart='433.0' departLane='random' departSpeed='10' />
    <vehicle id='N_S_99' type='standard_car' route='N_S' depart='435.0' departLane='random' departSpeed='10' />
    <vehicle id='W_E_100' type='standard_car' route='W_E' depart='435.0' departLane='random' departSpeed='10' />
    <vehicle id='W_S_101' type='standard_car' route='W_S' depart='438.0' departLane='random' departSpeed='10' />
    <vehicle id='N_S_102' type='standard_car' route='N_S' depart='446.0' departLane='random' departSpeed='10' />
    <vehicle id='W_E_103' type='standard_car' route='W_E' depart='446.0' departLane='random' departSpeed='10' />
    <vehicle id='E_W_104' type='standard_car' route='E_W' depart='447.0' departLane='random' departSpeed='10' />
    <vehicle id='E_N_105' type='standard_car' route='E_N' depart='447.0' departLane='random' departSpeed='10' />
    <vehicle id='W_E_106' type='standard_car' route='W_E' depart='448.0' departLane='random' departSpeed='10' />
    <vehicle id='N_S_107' type='standard_car' route='N_S' depart='455.0' departLane='random' departSpeed='10' />
    <vehicle id='N_W_108' type='standard_car' route='N_W' depart='455.0' departLane='random' departSpeed='10' />
    <vehicle id='N_S_109' type='standard_car' route='N_S' depart='457.0' departLane='random' departSpeed='10' />
    <vehicle id='N_W_110' type='standard_car' route='N_W' depart='457.0' departLane='random' departSpeed='10' />
    <vehicle id='E_W_111' type='standard_car' route='E_W' depart='458.0' departLane='random' departSpeed='10' />
    <vehicle id='W_S_112' type='standard_car' route='W_S' depart='460.0' departLane='random' departSpeed='10' />
    <vehicle id='W_S_113' type='standard_car' route='W_S' depart='461.0' departLane='random' departSpeed='10' />
    <vehicle id='N_W_114' type='standard_car' route='N_W' depart='462.0' departLane='random' departSpeed='10' />
    <vehicle id='S_E_115' type='standard_car' route='S_E' depart='462.0' departLane='random' departSpeed='10' />
    <vehicle id='S_N_116' type='standard_car' route='S_N' depart='464.0' departLane='random' departSpeed='10' />
    <vehicle id='S_N_117' type='standard_car' route='S_N' depart='467.0' departLane='random' departSpeed='10' />
    <vehicle id='E_N_118' type='standard_car' route='E_N' depart='467.0' departLane='random' departSpeed='10' />
    <vehicle id='E_W_119' type='standard_car' route='E_W' depart='468.0' departLane='random' departSpeed='10' />
    <vehicle id='N_S_120' type='standard_car' route='N_S' depart='469.0' departLane='random' departSpeed='10' />
    <vehicle id='W_E_121' type='standard_car' route='W_E' depart='469.0' departLane='random' departSpeed='10' />
    <vehicle id='S_N_122' type='standard_car' route='S_N' depart='470.0' departLane='random' departSpeed='10' />
    <vehicle id='W_S_123' type='standard_car' route='W_S' depart='470.0' departLane='random' departSpeed='10' />
    <vehicle id='S_E_124' type='standard_car' route='S_E' depart='474.0' departLane='random' departSpeed='10' />
    <vehicle id='S_E_125' type='standard_car' route='S_E' depart='477.0' departLane='random' departSpeed='10' />
    <vehicle id='S_E_126' type='standard_car' route='S_E' depart='477.0' departLane='random' departSpeed='10' />
    <vehicle id='N_S_127' type='standard_car' route='N_S' depart='488.0' departLane='random' departSpeed='10' />
    <vehicle id='W_S_128' type='standard_car' route='W_S' depart='489.0' departLane='random' departSpeed='10' />
    <vehicle id='N_S_129' type='standard_car' route='N_S' depart='490.0' departLane='random' departSpeed='10' />
    <vehicle id='S_E_130' type='standard_car' route='S_E' depart='493.0' departLane='random' departSpeed='10' />
    <vehicle id='N_S_131' type='standard_car' route='N_S' depart='494.0' departLane='random' departSpeed='10' />
    <vehicle id='S_E_132' type='standard_car' route='S_E' depart='495.0' departLane='random' departSpeed='10' />
    <vehicle id='E_N_133' type='standard_car' route='E_N' depart='498.0' departLane='random' departSpeed='10' />
    <vehicle id='E_W_134' type='standard_car' route='E_W' depart='498.0' departLane='random' departSpeed='10' />
    <vehicle id='N_S_135' type='standard_car' route='N_S' depart='505.0' departLane='random' departSpeed='10' />
    <vehicle id='S_E_136' type='standard_car' route='S_E' depart='508.0' departLane='random' departSpeed='10' />
    <vehicle id='W_S_137' type='standard_car' route='W_S' depart='510.0' departLane='random' departSpeed='10' />
    <vehicle id='E_W_138' type='standard_car' route='E_W' depart='512.0' departLane='random' departSpeed='10' />
    <vehicle id='S_E_139' type='standard_car' route='S_E' depart='514.0' departLane='random' departSpeed='10' />
    <vehicle id='E_W_140' type='standard_car' route='E_W' depart='514.0' departLane='random' departSpeed='10' />
    <vehicle id='W_E_141' type='standard_car' route='W_E' depart='515.0' departLane='random' departSpeed='10' />
    <vehicle id='S_N_142' type='standard_car' route='S_N' depart='517.0' departLane='random' departSpeed='10' />
    <vehicle id='N_W_143' type='standard_car' route='N_W' depart='518.0' departLane='random' departSpeed='10' />
    <vehicle id='E_N_144' type='standard_car' route='E_N' depart='519.0' departLane='random' departSpeed='10' />
    <vehicle id='W_S_145' type='standard_car' route='W_S' depart='519.0' departLane='random' departSpeed='10' />
    <vehicle id='S_N_146' type='standard_car' route='S_N' depart='519.0' departLane='random' departSpeed='10' />
    <vehicle id='S_N_147' type='standard_car' route='S_N' depart='520.0' departLane='random' departSpeed='10' />
    <vehicle id='W_E_148' type='standard_car' route='W_E' depart='525.0' departLane='random' departSpeed='10' />
    <vehicle id='W_S_149' type='standard_car' route='W_S' depart='527.0' departLane='random' departSpeed='10' />
    <vehicle id='W_E_150' type='standard_car' route='W_E' depart='528.0' departLane='random' departSpeed='10' />
    <vehicle id='N_S_151' type='standard_car' route='N_S' depart='528.0' departLane='random' departSpeed='10' />
    <vehicle id='N_W_152' type='standard_car' route='N_W' depart='528.0' departLane='random' departSpeed='10' />
    <vehicle id='E_N_153' type='standard_car' route='E_N' depart='531.0' departLane='random' departSpeed='10' />
    <vehicle id='N_S_154' type='standard_car' route='N_S' depart='533.0' departLane='random' departSpeed='10' />
    <vehicle id='W_E_155' type='standard_car' route='W_E' depart='534.0' departLane='random' departSpeed='10' />
    <vehicle id='N_S_156' type='standard_car' route='N_S' depart='535.0' departLane='random' departSpeed='10' />
    <vehicle id='W_S_157' type='standard_car' route='W_S' depart='537.0' departLane='random' departSpeed='10' />
    <vehicle id='S_N_158' type='standard_car' route='S_N' depart='539.0' departLane='random' departSpeed='10' />
    <vehicle id='E_W_159' type='standard_car' route='E_W' depart='541.0' departLane='random' departSpeed='10' />
    <vehicle id='S_N_160' type='standard_car' route='S_N' depart='541.0' departLane='random' departSpeed='10' />
    <vehicle id='N_W_161' type='standard_car' route='N_W' depart='544.0' departLane='random' departSpeed='10' />
    <vehicle id='N_S_162' type='standard_car' route='N_S' depart='545.0' departLane='random' departSpeed='10' />
    <vehicle id='E_W_163' type='standard_car' route='E_W' depart='546.0' departLane='random' departSpeed='10' />
    <vehicle id='N_S_164' type='standard_car' route='N_S' depart='547.0' departLane='random' departSpeed='10' />
    <vehicle id='N_S_165' type='standard_car' route='N_S' depart='549.0' departLane='random' departSpeed='10' />
    <vehicle id='S_N_166' type='standard_car' route='S_N' depart='549.0' departLane='random' departSpeed='10' />
    <vehicle id='E_W_167' type='standard_car' route='E_W' depart='550.0' departLane='random' departSpeed='10' />
    <vehicle id='W_E_168' type='standard_car' route='W_E' depart='552.0' departLane='random' departSpeed='10' />
    <vehicle id='N_S_169' type='standard_car' route='N_S' depart='559.0' departLane='random' departSpeed='10' />
    <vehicle id='S_E_170' type='standard_car' route='S_E' depart='559.0' departLane='random' departSpeed='10' />
    <vehicle id='E_W_171' type='standard_car' route='E_W' depart='560.0' departLane='random' departSpeed='10' />
    <vehicle id='W_S_172' type='standard_car' route='W_S' depart='561.0' departLane='random' departSpeed='10' />
    <vehicle id='E_N_173' type='standard_car' route='E_N' depart='563.0' departLane='random' departSpeed='10' />
    <vehicle id='W_E_174' type='standard_car' route='W_E' depart='564.0' departLane='random' departSpeed='10' />
    <vehicle id='S_N_175' type='standard_car' route='S_N' depart='565.0' departLane='random' departSpeed='10' />
    <vehicle id='E_N_176' type='standard_car' route='E_N' depart='565.0' departLane='random' departSpeed='10' />
    <vehicle id='W_S_177' type='standard_car' route='W_S' depart='565.0' departLane='random' departSpeed='10' />
    <vehicle id='N_S_178' type='standard_car' route='N_S' depart='566.0' departLane='random' departSpeed='10' />
    <vehicle id='W_E_179' type='standard_car' route='W_E' depart='568.0' departLane='random' departSpeed='10' />
    <vehicle id='E_N_180' type='standard_car' route='E_N' depart='571.0' departLane='random' departSpeed='10' />
    <vehicle id='N_S_181' type='standard_car' route='N_S' depart='571.0' departLane='random' departSpeed='10' />
    <vehicle id='E_W_182' type='standard_car' route='E_W' depart='573.0' departLane='random' departSpeed='10' />
    <vehicle id='E_W_183' type='standard_car' route='E_W' depart='574.0' departLane='random' departSpeed='10' />
    <vehicle id='E_N_184' type='standard_car' route='E_N' depart='574.0' departLane='random' departSpeed='10' />
    <vehicle id='S_N_185' type='standard_car' route='S_N' depart='575.0' departLane='random' departSpeed='10' />
    <vehicle id='S_N_186' type='standard_car' route='S_N' depart='576.0' departLane='random' departSpeed='10' />
    <vehicle id='S_E_187' type='standard_car' route='S_E' depart='577.0' departLane='random' departSpeed='10' />
    <vehicle id='E_W_188' type='standard_car' route='E_W' depart='578.0' departLane='random' departSpeed='10' />
    <vehicle id='N_S_189' type='standard_car' route='N_S' depart='578.0' departLane='random' departSpeed='10' />
    <vehicle id='W_S_190' type='standard_car' route='W_S' depart='579.0' departLane='random' departSpeed='10' />
    <vehicle id='N_S_191' type='standard_car' route='N_S' depart='582.0' departLane='random' departSpeed='10' />
    <vehicle id='E_W_192' type='standard_car' route='E_W' depart='582.0' departLane='random' departSpeed='10' />
    <vehicle id='E_N_193' type='standard_car' route='E_N' depart='582.0' departLane='random' departSpeed='10' />
    <vehicle id='E_N_194' type='standard_car' route='E_N' depart='583.0' departLane='random' departSpeed='10' />
    <vehicle id='E_W_195' type='standard_car' route='E_W' depart='589.0' departLane='random' departSpeed='10' />
    <vehicle id='S_N_196' type='standard_car' route='S_N' depart='589.0' departLane='random' departSpeed='10' />
    <vehicle id='W_E_197' type='standard_car' route='W_E' depart='591.0' departLane='random' departSpeed='10' />
    <vehicle id='N_S_198' type='standard_car' route='N_S' depart='594.0' departLane='random' departSpeed='10' />
    <vehicle id='N_S_199' type='standard_car' route='N_S' depart='595.0' departLane='random' departSpeed='10' />
    <vehicle id='E_N_200' type='standard_car' route='E_N' depart='598.0' departLane='random' departSpeed='10' />
    <vehicle id='E_N_201' type='standard_car' route='E_N' depart='599.0' departLane='random' departSpeed='10' />
    <vehicle id='N_S_202' type='standard_car' route='N_S' depart='599.0' departLane='random' departSpeed='10' />
    <vehicle id='W_S_203' type='standard_car' route='W_S' depart='599.0' departLane='random' departSpeed='10' />
    <vehicle id='N_S_204' type='standard_car' route='N_S' depart='602.0' departLane='random' departSpeed='10' />
    <vehicle id='S_N_205' type='standard_car' route='S_N' depart='602.0' departLane='random' departSpeed='10' />
    <vehicle id='S_N_206' type='standard_car' route='S_N' depart='602.0' departLane='random' departSpeed='10' />
    <vehicle id='W_S_207' type='standard_car' route='W_S' depart='602.0' departLane='random' departSpeed='10' />
    <vehicle id='E_W_208' type='standard_car' route='E_W' depart='603.0' departLane='random' departSpeed='10' />
    <vehicle id='W_S_209' type='standard_car' route='W_S' depart='604.0' departLane='random' departSpeed='10' />
    <vehicle id='S_E_210' type='standard_car' route='S_E' depart='605.0' departLane='random' departSpeed='10' />
    <vehicle id='S_E_211' type='standard_car' route='S_E' depart='607.0' departLane='random' departSpeed='10' />
    <vehicle id='N_S_212' type='standard_car' route='N_S' depart='608.0' departLane='random' departSpeed='10' />
    <vehicle id='N_S_213' type='standard_car' route='N_S' depart='612.0' departLane='random' departSpeed='10' />
    <vehicle id='S_N_214' type='standard_car' route='S_N' depart='614.0' departLane='random' departSpeed='10' />
    <vehicle id='W_S_215' type='standard_car' route='W_S' depart='617.0' departLane='random' departSpeed='10' />
    <vehicle id='W_E_216' type='standard_car' route='W_E' depart='619.0' departLane='random' departSpeed='10' />
    <vehicle id='S_N_217' type='standard_car' route='S_N' depart='621.0' departLane='random' departSpeed='10' />
    <vehicle id='W_E_218' type='standard_car' route='W_E' depart='621.0' departLane='random' departSpeed='10' />
    <vehicle id='W_E_219' type='standard_car' route='W_E' depart='622.0' departLane='random' departSpeed='10' />
    <vehicle id='E_N_220' type='standard_car' route='E_N' depart='626.0' departLane='random' departSpeed='10' />
    <vehicle id='E_W_221' type='standard_car' route='E_W' depart='627.0' departLane='random' departSpeed='10' />
    <vehicle id='E_W_222' type='standard_car' route='E_W' depart='627.0' departLane='random' departSpeed='10' />
    <vehicle id='S_E_223' type='standard_car' route='S_E' depart='629.0' departLane='random' departSpeed='10' />
    <vehicle id='N_W_224' type='standard_car' route='N_W' depart='629.0' departLane='random' departSpeed='10' />
    <vehicle id='E_W_225' type='standard_car' route='E_W' depart='629.0' departLane='random' departSpeed='10' />
    <vehicle id='S_E_226' type='standard_car' route='S_E' depart='631.0' departLane='random' departSpeed='10' />
    <vehicle id='E_W_227' type='standard_car' route='E_W' depart='632.0' departLane='random' departSpeed='10' />
    <vehicle id='W_E_228' type='standard_car' route='W_E' depart='635.0' departLane='random' departSpeed='10' />
    <vehicle id='W_S_229' type='standard_car' route='W_S' depart='635.0' departLane='random' departSpeed='10' />
    <vehicle id='N_S_230' type='standard_car' route='N_S' depart='638.0' departLane='random' departSpeed='10' />
    <vehicle id='N_S_231' type='standard_car' route='N_S' depart='640.0' departLane='random' departSpeed='10' />
    <vehicle id='N_W_232' type='standard_car' route='N_W' depart='642.0' departLane='random' departSpeed='10' />
    <vehicle id='N_S_233' type='standard_car' route='N_S' depart='644.0' departLane='random' departSpeed='10' />
    <vehicle id='N_W_234' type='standard_car' route='N_W' depart='644.0' departLane='random' departSpeed='10' />
    <vehicle id='N_W_235' type='standard_car' route='N_W' depart='645.0' departLane='random' departSpeed='10' />
    <vehicle id='E_N_236' type='standard_car' route='E_N' depart='645.0' departLane='random' departSpeed='10' />
    <vehicle id='W_E_237' type='standard_car' route='W_E' depart='649.0' departLane='random' departSpeed='10' />
    <vehicle id='N_S_238' type='standard_car' route='N_S' depart='649.0' departLane='random' departSpeed='10' />
    <vehicle id='N_S_239' type='standard_car' route='N_S' depart='649.0' departLane='random' departSpeed='10' />
    <vehicle id='S_E_240' type='standard_car' route='S_E' depart='652.0' departLane='random' departSpeed='10' />
    <vehicle id='W_E_241' type='standard_car' route='W_E' depart='653.0' departLane='random' departSpeed='10' />
    <vehicle id='N_W_242' type='standard_car' route='N_W' depart='654.0' departLane='random' departSpeed='10' />
    <vehicle id='S_N_243' type='standard_car' route='S_N' depart='655.0' departLane='random' departSpeed='10' />
    <vehicle id='E_W_244' type='standard_car' route='E_W' depart='655.0' departLane='random' departSpeed='10' />
    <vehicle id='N_W_245' type='standard_car' route='N_W' depart='656.0' departLane='random' departSpeed='10' />
    <vehicle id='S_N_246' type='standard_car' route='S_N' depart='658.0' departLane='random' departSpeed='10' />
    <vehicle id='W_S_247' type='standard_car' route='W_S' depart='658.0' departLane='random' departSpeed='10' />
    <vehicle id='W_S_248' type='standard_car' route='W_S' depart='660.0' departLane='random' departSpeed='10' />
    <vehicle id='W_E_249' type='standard_car' route='W_E' depart='664.0' departLane='random' departSpeed='10' />
    <vehicle id='E_W_250' type='standard_car' route='E_W' depart='666.0' departLane='random' departSpeed='10' />
    <vehicle id='W_S_251' type='standard_car' route='W_S' depart='666.0' departLane='random' departSpeed='10' />
    <vehicle id='N_S_252' type='standard_car' route='N_S' depart='666.0' departLane='random' departSpeed='10' />
    <vehicle id='N_S_253' type='standard_car' route='N_S' depart='667.0' departLane='random' departSpeed='10' />
    <vehicle id='S_N_254' type='standard_car' route='S_N' depart='673.0' departLane='random' departSpeed='10' />
    <vehicle id='E_N_255' type='standard_car' route='E_N' depart='674.0' departLane='random' departSpeed='10' />
    <vehicle id='E_W_256' type='standard_car' route='E_W' depart='674.0' departLane='random' departSpeed='10' />
    <vehicle id='W_S_257' type='standard_car' route='W_S' depart='675.0' departLane='random' departSpeed='10' />
    <vehicle id='S_N_258' type='standard_car' route='S_N' depart='677.0' departLane='random' departSpeed='10' />