<routes>
    <vType id="standard_car" length="5.0" maxSpeed="11.11" minGap="2.5" accel="2.0" decel="4.5" />
    <route id="N_S" edges="road_1_2_3 road_1_1_3"/>
    <route id="N_E" edges="road_1_2_3 road_1_1_0"/>
    <route id="N_W" edges="road_1_2_3 road_1_1_2"/>
    <route id="S_W" edges="road_1_0_1 road_1_1_2"/>
    <route id="S_E" edges="road_1_0_1 road_1_1_0"/>
    <route id="S_N" edges="road_1_0_1 road_1_1_1"/>

    <route id="W_E" edges="road_0_1_0 road_1_1_0"/>
    <route id="W_N" edges="road_0_1_0 road_1_1_1"/>
    <route id="W_S" edges="road_0_1_0 road_1_1_3"/>
    <route id="E_N" edges="road_2_1_2 road_1_1_1"/>
    <route id="E_S" edges="road_2_1_2 road_1_1_3"/>
    <route id="E_W" edges="road_2_1_2 road_1_1_2"/>
            
    <vehicle id='E_W_0' type='standard_car' route='E_W' depart='34.0' departLane='random' departSpeed='10' />
    <vehicle id='E_N_1' type='standard_car' route='E_N' depart='35.0' departLane='random' departSpeed='10' />
    <vehicle id='N_S_2' type='standard_car' route='N_S' depart='39.0' departLane='random' departSpeed='10' />
    <vehicle id='E_N_3' type='standard_car' route='E_N' depart='57.0' departLane='random' departSpeed='10' />
    <vehicle id='E_W_4' type='standard_car' route='E_W' depart='72.0' departLane='random' departSpeed='10' />
    <vehicle id='N_W_5' type='standard_car' route='N_W' depart='77.0' departLane='random' departSpeed='10' />
    <vehicle id='N_S_6' type='standard_car' route='N_S' depart='81.0' departLane='random' departSpeed='10' />
    <vehicle id='W_S_7' type='standard_car' route='W_S' depart='82.0' departLane='random' departSpeed='10' />
    <vehicle id='W_E_8' type='standard_car' route='W_E' depart='90.0' departLane='random' departSpeed='10' />
    <vehicle id='N_W_9' type='standard_car' route='N_W' depart='92.0' departLane='random' departSpeed='10' />
    <vehicle id='E_N_10' type='standard_car' route='E_N' depart='95.0' departLane='random' departSpeed='10' />
    <vehicle id='N_S_11' type='standard_car' route='N_S' depart='96.0' departLane='random' departSpeed='10' />
    <vehicle id='W_S_12' type='standard_car' route='W_S' depart='96.0' departLane='random' departSpeed='10' />
    <vehicle id='S_E_13' type='standard_car' route='S_E' depart='97.0' departLane='random' departSpeed='10' />
    <vehicle id='N_S_14' type='standard_car' route='N_S' depart='105.0' departLane='random' departSpeed='10' />
    <vehicle id='W_E_15' type='standard_car' route='W_E' depart='113.0' departLane='random' departSpeed='10' />
    <vehicle id='W_E_16' type='standard_car' route='W_E' depart='113.0' departLane='random' departSpeed='10' />
    <vehicle id='N_S_17' type='standard_car' route='N_S' depart='114.0' departLane='random' departSpeed='10' />
    <vehicle id='S_N_18' type='standard_car' route='S_N' depart='129.0' departLane='random' departSpeed='10' />
    <vehicle id='N_S_19' type='standard_car' route='N_S' depart='130.0' departLane='random' departSpeed='10' />
    <vehicle id='W_S_20' type='standard_car' route='W_S' depart='133.0' departLane='random' departSpeed='10' />
    <vehicle id='W_E_21' type='standard_car' route='W_E' depart='133.0' departLane='random' departSpeed='10' />
    <vehicle id='S_N_22' type='standard_car' route='S_N' depart='136.0' departLane='random' departSpeed='10' />
    <vehicle id='S_E_23' type='standard_car' route='S_E' depart='137.0' departLane='random' departSpeed='10' />
    <vehicle id='N_S_24' type='standard_car' route='N_S' depart='142.0' departLane='random' departSpeed='10' />
    <vehicle id='N_S_25' type='standard_car' route='N_S' depart='142.0' departLane='random' departSpeed='10' />
    <vehicle id='S_N_26' type='standard_car' route='S_N' depart='144.0' departLane='random' departSpeed='10' />
    <vehicle id='W_S_27' type='standard_car' route='W_S' depart='146.0' departLane='random' departSpeed='10' />
    <vehicle id='S_N_28' type='standard_car' route='S_N' depart='151.0' departLane='random' departSpeed='10' />
    <vehicle id='E_W_29' type='standard_car' route='E_W' depart='152.0' departLane='random' departSpeed='10' />
    <vehicle id='N_S_30' type='standard_car' route='N_S' depart='157.0' departLane='random' departSpeed='10' />
    <vehicle id='N_S_31' type='standard_car' route='N_S' depart='163.0' departLane='random' departSpeed='10' />
    <vehicle id='E_N_32' type='standard_car' route='E_N' depart='163.0' departLane='random' departSpeed='10' />
    <vehicle id='S_E_33' type='standard_car' route='S_E' depart='165.0' departLane='random' departSpeed='10' />
    <vehicle id='N_W_34' type='standard_car' route='N_W' depart='166.0' departLane='random' departSpeed='10' />
    <vehicle id='W_E_35' type='standard_car' route='W_E' depart='170.0' departLane='random' departSpeed='10' />
    <vehicle id='S_E_36' type='standard_car' route='S_E' depart='172.0' departLane='random' departSpeed='10' />
    <vehicle id='W_E_37' type='standard_car' route='W_E' depart='175.0' departLane='random' departSpeed='10' />
    <vehicle id='E_W_38' type='standard_car' route='E_W' depart='178.0' departLane='random' departSpeed='10' />
    <vehicle id='E_W_39' type='standard_car' route='E_W' depart='190.0' departLane='random' departSpeed='10' />
    <vehicle id='E_W_40' type='standard_car' route='E_W' depart='191.0' departLane='random' departSpeed='10' />
    <vehicle id='E_W_41' type='standard_car' route='E_W' depart='191.0' departLane='random' departSpeed='10' />
    <vehicle id='N_W_42' type='standard_car' route='N_W' depart='194.0' departLane='random' departSpeed='10' />
    <vehicle id='W_S_43' type='standard_car' route='W_S' depart='197.0' departLane='random' departSpeed='10' />
    <vehicle id='S_N_44' type='standard_car' route='S_N' depart='200.0' departLane='random' departSpeed='10' />
    <vehicle id='S_N_45' type='standard_car' route='S_N' depart='203.0' departLane='random' departSpeed='10' />
    <vehicle id='S_N_46' type='standard_car' route='S_N' depart='207.0' departLane='random' departSpeed='10' />
    <vehicle id='S_N_47' type='standard_car' route='S_N' depart='207.0' departLane='random' departSpeed='10' />
    <vehicle id='N_S_48' type='standard_car' route='N_S' depart='213.0' departLane='random' departSpeed='10' />
    <vehicle id='N_S_49' type='standard_car' route='N_S' depart='218.0' departLane='random' departSpeed='10' />
    <vehicle id='N_S_50' type='standard_car' route='N_S' depart='221.0' departLane='random' departSpeed='10' />
    <vehicle id='W_E_51' type='standard_car' route='W_E' depart='222.0' departLane='random' departSpeed='10' />
    <vehicle id='N_S_52' type='standard_car' route='N_S' depart='223.0' departLane='random' departSpeed='10' />
    <vehicle id='N_W_53' type='standard_car' route='N_W' depart='223.0' departLane='random' departSpeed='10' />
    <vehicle id='S_N_54' type='standard_car' route='S_N' depart='225.0' departLane='random' departSpeed='10' />
    <vehicle id='E_N_55' type='standard_car' route='E_N' depart='226.0' departLane='random' departSpeed='10' />
    <vehicle id='N_W_56' type='standard_car' route='N_W' depart='228.0' departLane='random' departSpeed='10' />
    <vehicle id='N_W_57' type='standard_car' route='N_W' depart='232.0' departLane='random' departSpeed='10' />
    <vehicle id='W_E_58' type='standard_car' route='W_E' depart='232.0' departLane='random' departSpeed='10' />
    <vehicle id='W_S_59' type='standard_car' route='W_S' depart='232.0' departLane='random' departSpeed='10' />
    <vehicle id='E_N_60' type='standard_car' route='E_N' depart='235.0' departLane='random' departSpeed='10' />
    <vehicle id='S_N_61' type='standard_car' route='S_N' depart='240.0' departLane='random' departSpeed='10' />
    <vehicle id='W_E_62' type='standard_car' route='W_E' depart='241.0' departLane='random' departSpeed='10' />
    <vehicle id='S_E_63' type='standard_car' route='S_E' depart='243.0' departLane='random' departSpeed='10' />
    <vehicle id='W_E_64' type='standard_car' route='W_E' depart='244.0' departLane='random' departSpeed='10' />
    <vehicle id='N_S_65' type='standard_car' route='N_S' depart='246.0' departLane='random' departSpeed='10' />
    <vehicle id='N_W_66' type='standard_car' route='N_W' depart='246.0' departLane='random' departSpeed='10' />
    <vehicle id='S_E_67' type='standard_car' route='S_E' depart='248.0' departLane='random' departSpeed='10' />
    <vehicle id='N_S_68' type='standard_car' route='N_S' depart='248.0' departLane='random' departSpeed='10' />
    <vehicle id='S_N_69' type='standard_car' route='S_N' depart='255.0' departLane='random' departSpeed='10' />
    <vehicle id='N_S_70' type='standard_car' route='N_S' depart='256.0' departLane='random' departSpeed='10' />
    <vehicle id='N_S_71' type='standard_car' route='N_S' depart='256.0' departLane='random' departSpeed='10' />
    <vehicle id='W_E_72' type='standard_car' route='W_E' depart='256.0' departLane='random' departSpeed='10' />
    <vehicle id='S_E_73' type='standard_car' route='S_E' depart='262.0' departLane='random' departSpeed='10' />
    <vehicle id='E_N_74' type='standard_car' route='E_N' depart='262.0' departLane='random' departSpeed='10' />
    <vehicle id='S_E_75' type='standard_car' route='S_E' depart='264.0' departLane='random' departSpeed='10' />
    <vehicle id='E_W_76' type='standard_car' route='E_W' depart='265.0' departLane='random' departSpeed='10' />
    <vehicle id='W_E_77' type='standard_car' route='W_E' depart='267.0' departLane='random' departSpeed='10' />
    <vehicle id='N_W_78' type='standard_car' route='N_W' depart='272.0' departLane='random' departSpeed='10' />
    <vehicle id='S_E_79' type='standard_car' route='S_E' depart='276.0' departLane='random' departSpeed='10' />
    <vehicle id='W_E_80' type='standard_car' route='W_E' depart='282.0' departLane='random' departSpeed='10' />
    <vehicle id='N_S_81' type='standard_car' route='N_S' depart='282.0' departLane='random' departSpeed='10' />
    <vehicle id='E_W_82' type='standard_car' route='E_W' depart='283.0' departLane='random' departSpeed='10' />
    <vehicle id='N_S_83' type='standard_car' route='N_S' depart='283.0' departLane='random' departSpeed='10' />
    <vehicle id='N_S_84' type='standard_car' route='N_S' depart='287.0' departLane='random' departSpeed='10' />
    <vehicle id='N_S_85' type='standard_car' route='N_S' depart='288.0' departLane='random' departSpeed='10' />
    <vehicle id='E_W_86' type='standard_car' route='E_W' depart='292.0' departLane='random' departSpeed='10' />
    <vehicle id='N_W_87' type='standard_car' route='N_W' depart='292.0' departLane='random' departSpeed='10' />
    <vehicle id='E_N_88' type='standard_car' route='E_N' depart='294.0' departLane='random' departSpeed='10' />
    <vehicle id='N_W_89' type='standard_car' route='N_W' depart='295.0' departLane='random' departSpeed='10' />
    <vehicle id='N_W_90' type='standard_car' route='N_W' depart='296.0' departLane='random' departSpeed='10' />
    <vehicle id='N_S_91' type='standard_car' route='N_S' depart='296.0' departLane='random' departSpeed='10' />
    <vehicle id='W_E_92' type='standard_car' route='W_E' depart='299.0' departLane='random' departSpeed='10' />
    <vehicle id='N_S_93' type='standard_car' route='N_S' depart='300.0' departLane='random' departSpeed='10' />
    <vehicle id='W_E_94' type='standard_car' route='W_E' depart='301.0' departLane='random' departSpeed='10' />
    <vehicle id='E_N_95' type='standard_car' route='E_N' depart='302.0' departLane='random' departSpeed='10' />
    <vehicle id='S_N_96' type='standard_car' route='S_N' depart='303.0' departLane='random' departSpeed='10' />
    <vehicle id='S_E_97' type='standard_car' route='S_E' depart='305.0' departLane='random' departSpeed='10' />
    <vehicle id='N_S_98' type='standard_car' route='N_S' depart='307.0' departLane='random' departSpeed='10' />
    <vehicle id='W_E_99' type='standard_car' route='W_E' depart='309.0' departLane='random' departSpeed='10' />
    <vehicle id='N_S_100' type='standard_car' route='N_S' depart='312.0' departLane='random' departSpeed='10' />
    <vehicle id='W_E_101' type='standard_car' route='W_E' depart='313.0' departLane='random' departSpeed='10' />
    <vehicle id='S_E_102' type='standard_car' route='S_E' depart='319.0' departLane='random' departSpeed='10' />
    <vehicle id='S_N_103' type='standard_car' route='S_N' depart='320.0' departLane='random' departSpeed='10' />
    <vehicle id='N_W_104' type='standard_car' route='N_W' depart='320.0' departLane='random' departSpeed='10' />
    <vehicle id='E_W_105' type='standard_car' route='E_W' depart='321.0' departLane='random' departSpeed='10' />
    <vehicle id='S_N_106' type='standard_car' route='S_N' depart='325.0' departLane='random' departSpeed='10' />
    <vehicle id='E_W_107' type='standard_car' route='E_W' depart='325.0' departLane='random' departSpeed='10' />
    <vehicle id='W_S_108' type='standard_car' route='W_S' depart='329.0' departLane='random' departSpeed='10' />
    <vehicle id='W_E_109' type='standard_car' route='W_E' depart='329.0' departLane='random' departSpeed='10' />
    <vehicle id='S_N_110' type='standard_car' route='S_N' depart='330.0' departLane='random' departSpeed='10' />
    <vehicle id='E_N_111' type='standard_car' route='E_N' depart='331.0' departLane='random' departSpeed='10' />
    <vehicle id='N_W_112' type='standard_car' route='N_W' depart='333.0' departLane='random' departSpeed='10' />
    <vehicle id='N_S_113' type='standard_car' route='N_S' depart='334.0' departLane='random' departSpeed='10' />
    <vehicle id='N_W_114' type='standard_car' route='N_W' depart='335.0' departLane='random' departSpeed='10' />
    <vehicle id='S_N_115' type='standard_car' route='S_N' depart='335.0' departLane='random' departSpeed='10' />
    <vehicle id='W_E_116' type='standard_car' route='W_E' depart='336.0' departLane='random' departSpeed='10' />
    <vehicle id='E_W_117' type='standard_car' route='E_W' depart='338.0' departLane='random' departSpeed='10' />
    <vehicle id='S_N_118' type='standard_car' route='S_N' depart='341.0' departLane='random' departSpeed='10' />
    <vehicle id='W_S_119' type='standard_car' route='W_S' depart='343.0' departLane='random' departSpeed='10' />
    <vehicle id='S_N_120' type='standard_car' route='S_N' depart='343.0' departLane='random' departSpeed='10' />
    <vehicle id='S_E_121' type='standard_car' route='S_E' depart='344.0' departLane='random' departSpeed='10' />
    <vehicle id='N_S_122' type='standard_car' route='N_S' depart='344.0' departLane='random' departSpeed='10' />
    <vehicle id='N_S_123' type='standard_car' route='N_S' depart='346.0' departLane='random' departSpeed='10' />
    <vehicle id='S_E_124' type='standard_car' route='S_E' depart='347.0' departLane='random' departSpeed='10' />
    <vehicle id='N_S_125' type='standard_car' route='N_S' depart='348.0' departLane='random' departSpeed='10' />
    <vehicle id='W_E_126' type='standard_car' route='W_E' depart='349.0' departLane='random' departSpeed='10' />
    <vehicle id='E_W_127' type='standard_car' route='E_W' depart='349.0' departLane='random' departSpeed='10' />
    <vehicle id='S_E_128' type='standard_car' route='S_E' depart='349.0' departLane='random' departSpeed='10' />
    <vehicle id='E_W_129' type='standard_car' route='E_W' depart='349.0' departLane='random' departSpeed='10' />
    <vehicle id='S_N_130' type='standard_car' route='S_N' depart='352.0' departLane='random' departSpeed='10' />
    <vehicle id='N_W_131' type='standard_car' route='N_W' depart='352.0' departLane='random' departSpeed='10' />
    <vehicle id='W_S_132' type='standard_car' route='W_S' depart='353.0' departLane='random' departSpeed='10' />
    <vehicle id='W_E_133' type='standard_car' route='W_E' depart='355.0' departLane='random' departSpeed='10' />
    <vehicle id='S_E_134' type='standard_car' route='S_E' depart='357.0' departLane='random' departSpeed='10' />
    <vehicle id='E_W_135' type='standard_car' route='E_W' depart='358.0' departLane='random' departSpeed='10' />
    <vehicle id='S_E_136' type='standard_car' route='S_E' depart='364.0' departLane='random' departSpeed='10' />
    <vehicle id='E_W_137' type='standard_car' route='E_W' depart='364.0' departLane='random' departSpeed='10' />
    <vehicle id='S_E_138' type='standard_car' route='S_E' depart='365.0' departLane='random' departSpeed='10' />
    <vehicle id='S_E_139' type='standard_car' route='S_E' depart='365.0' departLane='random' departSpeed='10' />
    <vehicle id='E_N_140' type='standard_car' route='E_N' depart='366.0' departLane='random' departSpeed='10' />
    <vehicle id='N_S_141' type='standard_car' route='N_S' depart='366.0' departLane='random' departSpeed='10' />
    <vehicle id='W_E_142' type='standard_car' route='W_E' depart='366.0' departLane='random' departSpeed='10' />
    <vehicle id='E_W_143' type='standard_car' route='E_W' depart='367.0' departLane='random' departSpeed='10' />
    <vehicle id='N_S_144' type='standard_car' route='N_S' depart='369.0' departLane='random' departSpeed='10' />
    <vehicle id='W_E_145' type='standard_car' route='W_E' depart='369.0' departLane='random' departSpeed='10' />
    <vehicle id='W_S_146' type='standard_car' route='W_S' depart='370.0' departLane='random' departSpeed='10' />
    <vehicle id='E_W_147' type='standard_car' route='E_W' depart='371.0' departLane='random' departSpeed='10' />
    <vehicle id='S_N_148' type='standard_car' route='S_N' depart='371.0' departLane='random' departSpeed='10' />
    <vehicle id='S_N_149' type='standard_car' route='S_N' depart='372.0' departLane='random' departSpeed='10' />
    <vehicle id='S_E_150' type='standard_car' route='S_E' depart='374.0' departLane='random' departSpeed='10' />
    <vehicle id='W_E_151' type='standard_car' route='W_E' depart='374.0' departLane='random' departSpeed='10' />
    <vehicle id='S_E_152' type='standard_car' route='S_E' depart='376.0' departLane='random' departSpeed='10' />
    <vehicle id='E_W_153' type='standard_car' route='E_W' depart='377.0' departLane='random' departSpeed='10' />
    <vehicle id='S_N_154' type='standard_car' route='S_N' depart='377.0' departLane='random' departSpeed='10' />
    <vehicle id='W_E_155' type='standard_car' route='W_E' depart='377.0' departLane='random' departSpeed='10' />
    <vehicle id='S_N_156' type='standard_car' route='S_N' depart='377.0' departLane='random' departSpeed='10' />
    <vehicle id='E_N_157' type='standard_car' route='E_N' depart='377.0' departLane='random' departSpeed='10' />
    <vehicle id='N_S_158' type='standard_car' route='N_S' depart='380.0' departLane='random' departSpeed='10' />
    <vehicle id='N_S_159' type='standard_car' route='N_S' depart='388.0' departLane='random' departSpeed='10' />
    <vehicle id='E_W_160' type='standard_car' route='E_W' depart='388.0' departLane='random' departSpeed='10' />
    <vehicle id='S_N_161' type='standard_car' route='S_N' depart='388.0' departLane='random' departSpeed='10' />
    <vehicle id='W_E_162' type='standard_car' route='W_E' depart='392.0' departLane='random' departSpeed='10' />
    <vehicle id='E_W_163' type='standard_car' route='E_W' depart='392.0' departLane='random' departSpeed='10' />
    <vehicle id='W_E_164' type='standard_car' route='W_E' depart='395.0' departLane='random' departSpeed='10' />
    <vehicle id='E_N_165' type='standard_car' route='E_N' depart='395.0' departLane='random' departSpeed='10' />
    <vehicle id='S_N_166' type='standard_car' route='S_N' depart='395.0' departLane='random' departSpeed='10' />
    <vehicle id='W_S_167' type='standard_car' route='W_S' depart='395.0' departLane='random' departSpeed='10' />
    <vehicle id='W_E_168' type='standard_car' route='W_E' depart='400.0' departLane='random' departSpeed='10' />
    <vehicle id='E_W_169' type='standard_car' route='E_W' depart='400.0' departLane='random' departSpeed='10' />
    <vehicle id='E_N_170' type='standard_car' route='E_N' depart='403.0' departLane='random' departSpeed='10' />
    <vehicle id='N_S_171' type='standard_car' route='N_S' depart='403.0' departLane='random' departSpeed='10' />
    <vehicle id='S_N_172' type='standard_car' route='S_N' depart='405.0' departLane='random' departSpeed='10' />
    <vehicle id='E_N_173' type='standard_car' route='E_N' depart='406.0' departLane='random' departSpeed='10' />
    <vehicle id='W_S_174' type='standard_car' route='W_S' depart='407.0' departLane='random' departSpeed='10' />
    <vehicle id='S_N_175' type='standard_car' route='S_N' depart='408.0' departLane='random' departSpeed='10' />
    <vehicle id='N_W_176' type='standard_car' route='N_W' depart='408.0' departLane='random' departSpeed='10' />
    <vehicle id='N_W_177' type='standard_car' route='N_W' depart='408.0' departLane='random' departSpeed='10' />
    <vehicle id='N_S_178' type='standard_car' route='N_S' depart='408.0' departLane='random' departSpeed='10' />
    <vehicle id='W_S_179' type='standard_car' route='W_S' depart='414.0' departLane='random' departSpeed='10' />
    <vehicle id='N_S_180' type='standard_car' route='N_S' depart='415.0' departLane='random' departSpeed='10' />
    <vehicle id='W_S_181' type='standard_car' route='W_S' depart='416.0' departLane='random' departSpeed='10' />
    <vehicle id='N_S_182' type='standard_car' route='N_S' depart='416.0' departLane='random' departSpeed='10' />
    <vehicle id='N_S_183' type='standard_car' route='N_S' depart='416.0' departLane='random' departSpeed='10' />
    <vehicle id='W_S_184' type='standard_car' route='W_S' depart='418.0' departLane='random' departSpeed='10' />
    <vehicle id='W_S_185' type='standard_car' route='W_S' depart='418.0' departLane='random' departSpeed='10' />
    <vehicle id='E_N_186' type='standard_car' route='E_N' depart='419.0' departLane='random' departSpeed='10' />
    <vehicle id='S_N_187' type='standard_car' route='S_N' depart='420.0' departLane='random' departSpeed='10' />
    <vehicle id='W_E_188' type='standard_car' route='W_E' depart='421.0' departLane='random' departSpeed='10' />
    <vehicle id='S_N_189' type='standard_car' route='S_N' depart='421.0' departLane='random' departSpeed='10' />
    <vehicle id='E_W_190' type='standard_car' route='E_W' depart='423.0' departLane='random' departSpeed='10' />
    <vehicle id='N_W_191' type='standard_car' route='N_W' depart='430.0' departLane='random' departSpeed='10' />
    <vehicle id='W_E_192' type='standard_car' route='W_E' depart='430.0' departLane='random' departSpeed='10' />
    <vehicle id='E_W_193' type='standard_car' route='E_W' depart='430.0' departLane='random' departSpeed='10' />
    <vehicle id='W_E_194' type='standard_car' route='W_E' depart='431.0' departLane='random' departSpeed='10' />
    <vehicle id='W_S_195' type='standard_car' route='W_S' depart='432.0' departLane='random' departSpeed='10' />
    <vehicle id='W_S_196' type='standard_car' route='W_S' depart='433.0' departLane='random' departSpeed='10' />
    <vehicle id='N_S_197' type='standard_car' route='N_S' depart='433.0' departLane='random' departSpeed='10' />
    <vehicle id='E_N_198' type='standard_car' route='E_N' depart='434.0' departLane='random' departSpeed='10' />
    <vehicle id='W_S_199' type='standard_car' route='W_S' depart='435.0' departLane='random' departSpeed='10' />
    <vehicle id='S_N_200' type='standard_car' route='S_N' depart='435.0' departLane='random' departSpeed='10' />
    <vehicle id='N_W_201' type='standard_car' route='N_W' depart='436.0' departLane='random' departSpeed='10' />
    <vehicle id='N_S_202' type='standard_car' route='N_S' depart='438.0' departLane='random' departSpeed='10' />
    <vehicle id='W_E_203' type='standard_car' route='W_E' depart='439.0' departLane='random' departSpeed='10' />
    <vehicle id='S_N_204' type='standard_car' route='S_N' depart='439.0' departLane='random' departSpeed='10' />
    <vehicle id='N_S_205' type='standard_car' route='N_S' depart='440.0' departLane='random' departSpeed='10' />
    <vehicle id='E_N_206' type='standard_car' route='E_N' depart='441.0' departLane='random' departSpeed='10' />
    <vehicle id='S_N_207' type='standard_car' route='S_N' depart='441.0' departLane='random' departSpeed='10' />
    <vehicle id='N_S_208' type='standard_car' route='N_S' depart='447.0' departLane='random' departSpeed='10' />
    <vehicle id='E_N_209' type='standard_car' route='E_N' depart='447.0' departLane='random' departSpeed='10' />
    <vehicle id='N_S_210' type='standard_car' route='N_S' depart='449.0' departLane='random' departSpeed='10' />
    <vehicle id='S_E_211' type='standard_car' route='S_E' depart='451.0' departLane='random' departSpeed='10' />
    <vehicle id='N_W_212' type='standard_car' route='N_W' depart='452.0' departLane='random' departSpeed='10' />
    <vehicle id='E_W_213' type='standard_car' route='E_W' depart='455.0' departLane='random' departSpeed='10' />
    <vehicle id='E_N_214' type='standard_car' route='E_N' depart='456.0' departLane='random' departSpeed='10' />
    <vehicle id='E_W_215' type='standard_car' route='E_W' depart='456.0' departLane='random' departSpeed='10' />
    <vehicle id='W_E_216' type='standard_car' route='W_E' depart='457.0' departLane='random' departSpeed='10' />
    <vehicle id='S_N_217' type='standard_car' route='S_N' depart='459.0' departLane='random' departSpeed='10' />
    <vehicle id='E_W_218' type='standard_car' route='E_W' depart='464.0' departLane='random' departSpeed='10' />
    <vehicle id='N_S_219' type='standard_car' route='N_S' depart='466.0' departLane='random' departSpeed='10' />
    <vehicle id='E_W_220' type='standard_car' route='E_W' depart='466.0' departLane='random' departSpeed='10' />
    <vehicle id='W_E_221' type='standard_car' route='W_E' depart='466.0' departLane='random' departSpeed='10' />
    <vehicle id='W_E_222' type='standard_car' route='W_E' depart='467.0' departLane='random' departSpeed='10' />
    <vehicle id='W_E_223' type='standard_car' route='W_E' depart='467.0' departLane='random' departSpeed='10' />
    <vehicle id='N_S_224' type='standard_car' route='N_S' depart='467.0' departLane='random' departSpeed='10' />
    <vehicle id='E_W_225' type='standard_car' route='E_W' depart='467.0' departLane='random' departSpeed='10' />
    <vehicle id='W_S_226' type='standard_car' route='W_S' depart='468.0' departLane='random' departSpeed='10' />
    <vehicle id='S_E_227' type='standard_car' route='S_E' depart='470.0' departLane='random' departSpeed='10' />
    <vehicle id='E_N_228' type='standard_car' route='E_N' depart='471.0' departLane='random' departSpeed='10' />
    <vehicle id='S_E_229' type='standard_car' route='S_E' depart='472.0' departLane='random' departSpeed='10' />
    <vehicle id='E_W_230' type='standard_car' route='E_W' depart='475.0' departLane='random' departSpeed='10' />
    <vehicle id='W_E_231' type='standard_car' route='W_E' depart='475.0' departLane='random' departSpeed='10' />
    <vehicle id='S_E_232' type='standard_car' route='S_E' depart='477.0' departLane='random' departSpeed='10' />
    <vehicle id='N_S_233' type='standard_car' route='N_S' depart='477.0' departLane='random' departSpeed='10' />
    <vehicle id='N_S_234' type='standard_car' route='N_S' depart='477.0' departLane='random' departSpeed='10' />
    <vehicle id='W_S_235' type='standard_car' route='W_S' depart='480.0' departLane='random' departSpeed='10' />
    <vehicle id='W_S_236' type='standard_car' route='W_S' depart='480.0' departLane='random' departSpeed='10' />
    <vehicle id='N_S_237' type='standard_car' route='N_S' depart='482.0' departLane='random' departSpeed='10' />
    <vehicle id='S_E_238' type='standard_car' route='S_E' depart='482.0' departLane='random' departSpeed='10' />
    <vehicle id='S_E_239' type='standard_car' route='S_E' depart='484.0' departLane='random' departSpeed='10' />
    <vehicle id='E_W_240' type='standard_car' route='E_W' depart='484.0' departLane='random' departSpeed='10' />
    <vehicle id='N_W_241' type='standard_car' route='N_W' depart='484.0' departLane='random' departSpeed='10' />
    <vehicle id='E_N_242' type='standard_car' route='E_N' depart='486.0' departLane='random' departSpeed='10' />
    <vehicle id='W_S_243' type='standard_car' route='W_S' depart='486.0' departLane='random' departSpeed='10' />
    <vehicle id='W_E_244' type='standard_car' route='W_E' depart='486.0' departLane='random' departSpeed='10' />
    <vehicle id='E_W_245' type='standard_car' route='E_W' depart='486.0' departLane='random' departSpeed='10' />
    <vehicle id='W_E_246' type='standard_car' route='W_E' depart='486.0' departLane='random' departSpeed='10' />
    <vehicle id='S_N_247' type='standard_car' route='S_N' depart='487.0' departLane='random' departSpeed='10' />
    <vehicle id='E_W_248' type='standard_car' route='E_W' depart='487.0' departLane='random' departSpeed='10' />
    <vehicle id='E_W_249' type='standard_car' route='E_W' depart='491.0' departLane='random' departSpeed='10' />
    <vehicle id='S_N_250' type='standard_car' route='S_N' depart='491.0' departLane='random' departSpeed='10' />
    <vehicle id='W_E_251' type='standard_car' route='W_E' depart='493.0' departLane='random' departSpeed='10' />
    <vehicle id='W_E_252' type='standard_car' route='W_E' depart='494.0' departLane='random' departSpeed='10' />
    <vehicle id='N_S_253' type='standard_car' route='N_S' depart='494.0' departLane='random' departSpeed='10' />
    <vehicle id='S_N_254' type='standard_car' route='S_N' depart='497.0' departLane='random' departSpeed='10' />
    <vehicle id='N_W_255' type='standard_car' route='N_W' depart='502.0' departLane='random' departSpeed='10' />
    <vehicle id='S_N_256' type='standard_car' route='S_N' depart='502.0' departLane='random' departSpeed='10' />
    <vehicle id='E_N_257' type='standard_car' route='E_N' depart='504.0' departLane='random' departSpeed='10' />
    <vehicle id='N_W_258' type='standard_car' route='N_W' depart='504.0' departLane='random' departSpeed='10' />