<routes>
    <vType id="standard_car" length="5.0" maxSpeed="15" minGap="2.5" accel="2.0" decel="4.5" />
    <route id="N_S" edges="road_1_2_3 road_1_1_3"/>
    <route id="N_E" edges="road_1_2_3 road_1_1_0"/>
    <route id="N_W" edges="road_1_2_3 road_1_1_2"/>
    <route id="S_W" edges="road_1_0_1 road_1_1_2"/>
    <route id="S_E" edges="road_1_0_1 road_1_1_0"/>
    <route id="S_N" edges="road_1_0_1 road_1_1_1"/>

    <route id="W_E" edges="road_0_1_0 road_1_1_0"/>
    <route id="W_N" edges="road_0_1_0 road_1_1_1"/>
    <route id="W_S" edges="road_0_1_0 road_1_1_3"/>
    <route id="E_N" edges="road_2_1_2 road_1_1_1"/>
    <route id="E_S" edges="road_2_1_2 road_1_1_3"/>
    <route id="E_W" edges="road_2_1_2 road_1_1_2"/>
            
    <vehicle id='N_W_0' type='standard_car' route='N_W' depart='40.0' departLane='random' departSpeed='10' />
    <vehicle id='N_S_1' type='standard_car' route='N_S' depart='61.0' departLane='random' departSpeed='10' />
    <vehicle id='N_S_2' type='standard_car' route='N_S' depart='71.0' departLane='random' departSpeed='10' />
    <vehicle id='N_S_3' type='standard_car' route='N_S' depart='75.0' departLane='random' departSpeed='10' />
    <vehicle id='N_S_4' type='standard_car' route='N_S' depart='97.0' departLane='random' departSpeed='10' />
    <vehicle id='S_E_5' type='standard_car' route='S_E' depart='99.0' departLane='random' departSpeed='10' />
    <vehicle id='S_E_6' type='standard_car' route='S_E' depart='114.0' departLane='random' departSpeed='10' />
    <vehicle id='W_S_7' type='standard_car' route='W_S' depart='144.0' departLane='random' departSpeed='10' />
    <vehicle id='N_W_8' type='standard_car' route='N_W' depart='146.0' departLane='random' departSpeed='10' />
    <vehicle id='W_E_9' type='standard_car' route='W_E' depart='147.0' departLane='random' departSpeed='10' />
    <vehicle id='W_E_10' type='standard_car' route='W_E' depart='148.0' departLane='random' departSpeed='10' />
    <vehicle id='W_E_11' type='standard_car' route='W_E' depart='153.0' departLane='random' departSpeed='10' />
    <vehicle id='S_N_12' type='standard_car' route='S_N' depart='161.0' departLane='random' departSpeed='10' />
    <vehicle id='S_N_13' type='standard_car' route='S_N' depart='164.0' departLane='random' departSpeed='10' />
    <vehicle id='N_W_14' type='standard_car' route='N_W' depart='165.0' departLane='random' departSpeed='10' />
    <vehicle id='W_E_15' type='standard_car' route='W_E' depart='170.0' departLane='random' departSpeed='10' />
    <vehicle id='W_S_16' type='standard_car' route='W_S' depart='179.0' departLane='random' departSpeed='10' />
    <vehicle id='E_N_17' type='standard_car' route='E_N' depart='181.0' departLane='random' departSpeed='10' />
    <vehicle id='W_S_18' type='standard_car' route='W_S' depart='181.0' departLane='random' departSpeed='10' />
    <vehicle id='N_W_19' type='standard_car' route='N_W' depart='184.0' departLane='random' departSpeed='10' />
    <vehicle id='N_S_20' type='standard_car' route='N_S' depart='185.0' departLane='random' departSpeed='10' />
    <vehicle id='N_S_21' type='standard_car' route='N_S' depart='191.0' departLane='random' departSpeed='10' />
    <vehicle id='S_E_22' type='standard_car' route='S_E' depart='194.0' departLane='random' departSpeed='10' />
    <vehicle id='N_S_23' type='standard_car' route='N_S' depart='198.0' departLane='random' departSpeed='10' />
    <vehicle id='S_N_24' type='standard_car' route='S_N' depart='199.0' departLane='random' departSpeed='10' />
    <vehicle id='N_W_25' type='standard_car' route='N_W' depart='200.0' departLane='random' departSpeed='10' />
    <vehicle id='E_W_26' type='standard_car' route='E_W' depart='200.0' departLane='random' departSpeed='10' />
    <vehicle id='W_E_27' type='standard_car' route='W_E' depart='202.0' departLane='random' departSpeed='10' />
    <vehicle id='W_S_28' type='standard_car' route='W_S' depart='203.0' departLane='random' departSpeed='10' />
    <vehicle id='N_W_29' type='standard_car' route='N_W' depart='208.0' departLane='random' departSpeed='10' />
    <vehicle id='E_N_30' type='standard_car' route='E_N' depart='218.0' departLane='random' departSpeed='10' />
    <vehicle id='W_E_31' type='standard_car' route='W_E' depart='221.0' departLane='random' departSpeed='10' />
    <vehicle id='W_S_32' type='standard_car' route='W_S' depart='224.0' departLane='random' departSpeed='10' />
    <vehicle id='S_N_33' type='standard_car' route='S_N' depart='227.0' departLane='random' departSpeed='10' />
    <vehicle id='W_E_34' type='standard_car' route='W_E' depart='231.0' departLane='random' departSpeed='10' />
    <vehicle id='S_E_35' type='standard_car' route='S_E' depart='238.0' departLane='random' departSpeed='10' />
    <vehicle id='W_E_36' type='standard_car' route='W_E' depart='238.0' departLane='random' departSpeed='10' />
    <vehicle id='N_S_37' type='standard_car' route='N_S' depart='239.0' departLane='random' departSpeed='10' />
    <vehicle id='S_N_38' type='standard_car' route='S_N' depart='243.0' departLane='random' departSpeed='10' />
    <vehicle id='E_W_39' type='standard_car' route='E_W' depart='243.0' departLane='random' departSpeed='10' />
    <vehicle id='N_S_40' type='standard_car' route='N_S' depart='244.0' departLane='random' departSpeed='10' />
    <vehicle id='N_W_41' type='standard_car' route='N_W' depart='246.0' departLane='random' departSpeed='10' />
    <vehicle id='S_E_42' type='standard_car' route='S_E' depart='246.0' departLane='random' departSpeed='10' />
    <vehicle id='S_N_43' type='standard_car' route='S_N' depart='260.0' departLane='random' departSpeed='10' />
    <vehicle id='E_W_44' type='standard_car' route='E_W' depart='261.0' departLane='random' departSpeed='10' />
    <vehicle id='N_W_45' type='standard_car' route='N_W' depart='264.0' departLane='random' departSpeed='10' />
    <vehicle id='E_W_46' type='standard_car' route='E_W' depart='270.0' departLane='random' departSpeed='10' />
    <vehicle id='E_W_47' type='standard_car' route='E_W' depart='275.0' departLane='random' departSpeed='10' />
    <vehicle id='W_E_48' type='standard_car' route='W_E' depart='275.0' departLane='random' departSpeed='10' />
    <vehicle id='S_N_49' type='standard_car' route='S_N' depart='278.0' departLane='random' departSpeed='10' />
    <vehicle id='E_W_50' type='standard_car' route='E_W' depart='282.0' departLane='random' departSpeed='10' />
    <vehicle id='E_N_51' type='standard_car' route='E_N' depart='284.0' departLane='random' departSpeed='10' />
    <vehicle id='S_E_52' type='standard_car' route='S_E' depart='288.0' departLane='random' departSpeed='10' />
    <vehicle id='S_E_53' type='standard_car' route='S_E' depart='291.0' departLane='random' departSpeed='10' />
    <vehicle id='N_W_54' type='standard_car' route='N_W' depart='294.0' departLane='random' departSpeed='10' />
    <vehicle id='S_E_55' type='standard_car' route='S_E' depart='296.0' departLane='random' departSpeed='10' />
    <vehicle id='S_N_56' type='standard_car' route='S_N' depart='297.0' departLane='random' departSpeed='10' />
    <vehicle id='E_N_57' type='standard_car' route='E_N' depart='297.0' departLane='random' departSpeed='10' />
    <vehicle id='S_N_58' type='standard_car' route='S_N' depart='301.0' departLane='random' departSpeed='10' />
    <vehicle id='S_E_59' type='standard_car' route='S_E' depart='301.0' departLane='random' departSpeed='10' />
    <vehicle id='S_E_60' type='standard_car' route='S_E' depart='303.0' departLane='random' departSpeed='10' />
    <vehicle id='W_E_61' type='standard_car' route='W_E' depart='306.0' departLane='random' departSpeed='10' />
    <vehicle id='S_N_62' type='standard_car' route='S_N' depart='307.0' departLane='random' departSpeed='10' />
    <vehicle id='E_N_63' type='standard_car' route='E_N' depart='310.0' departLane='random' departSpeed='10' />
    <vehicle id='N_W_64' type='standard_car' route='N_W' depart='311.0' departLane='random' departSpeed='10' />
    <vehicle id='E_N_65' type='standard_car' route='E_N' depart='325.0' departLane='random' departSpeed='10' />
    <vehicle id='W_E_66' type='standard_car' route='W_E' depart='329.0' departLane='random' departSpeed='10' />
    <vehicle id='W_E_67' type='standard_car' route='W_E' depart='331.0' departLane='random' departSpeed='10' />
    <vehicle id='E_W_68' type='standard_car' route='E_W' depart='331.0' departLane='random' departSpeed='10' />
    <vehicle id='S_E_69' type='standard_car' route='S_E' depart='336.0' departLane='random' departSpeed='10' />
    <vehicle id='N_S_70' type='standard_car' route='N_S' depart='340.0' departLane='random' departSpeed='10' />
    <vehicle id='W_E_71' type='standard_car' route='W_E' depart='342.0' departLane='random' departSpeed='10' />
    <vehicle id='W_S_72' type='standard_car' route='W_S' depart='348.0' departLane='random' departSpeed='10' />
    <vehicle id='S_N_73' type='standard_car' route='S_N' depart='348.0' departLane='random' departSpeed='10' />
    <vehicle id='N_S_74' type='standard_car' route='N_S' depart='352.0' departLane='random' departSpeed='10' />
    <vehicle id='W_E_75' type='standard_car' route='W_E' depart='353.0' departLane='random' departSpeed='10' />
    <vehicle id='W_E_76' type='standard_car' route='W_E' depart='355.0' departLane='random' departSpeed='10' />
    <vehicle id='N_S_77' type='standard_car' route='N_S' depart='356.0' departLane='random' departSpeed='10' />
    <vehicle id='N_S_78' type='standard_car' route='N_S' depart='360.0' departLane='random' departSpeed='10' />
    <vehicle id='E_N_79' type='standard_car' route='E_N' depart='361.0' departLane='random' departSpeed='10' />
    <vehicle id='E_N_80' type='standard_car' route='E_N' depart='364.0' departLane='random' departSpeed='10' />
    <vehicle id='S_N_81' type='standard_car' route='S_N' depart='369.0' departLane='random' departSpeed='10' />
    <vehicle id='E_W_82' type='standard_car' route='E_W' depart='373.0' departLane='random' departSpeed='10' />
    <vehicle id='W_E_83' type='standard_car' route='W_E' depart='374.0' departLane='random' departSpeed='10' />
    <vehicle id='W_E_84' type='standard_car' route='W_E' depart='375.0' departLane='random' departSpeed='10' />
    <vehicle id='N_W_85' type='standard_car' route='N_W' depart='380.0' departLane='random' departSpeed='10' />
    <vehicle id='S_N_86' type='standard_car' route='S_N' depart='381.0' departLane='random' departSpeed='10' />
    <vehicle id='S_N_87' type='standard_car' route='S_N' depart='382.0' departLane='random' departSpeed='10' />
    <vehicle id='S_N_88' type='standard_car' route='S_N' depart='383.0' departLane='random' departSpeed='10' />
    <vehicle id='N_W_89' type='standard_car' route='N_W' depart='385.0' departLane='random' departSpeed='10' />
    <vehicle id='N_W_90' type='standard_car' route='N_W' depart='386.0' departLane='random' departSpeed='10' />
    <vehicle id='S_E_91' type='standard_car' route='S_E' depart='389.0' departLane='random' departSpeed='10' />
    <vehicle id='S_E_92' type='standard_car' route='S_E' depart='389.0' departLane='random' departSpeed='10' />
    <vehicle id='S_E_93' type='standard_car' route='S_E' depart='390.0' departLane='random' departSpeed='10' />
    <vehicle id='S_N_94' type='standard_car' route='S_N' depart='390.0' departLane='random' departSpeed='10' />
    <vehicle id='N_S_95' type='standard_car' route='N_S' depart='392.0' departLane='random' departSpeed='10' />
    <vehicle id='S_E_96' type='standard_car' route='S_E' depart='394.0' departLane='random' departSpeed='10' />
    <vehicle id='N_S_97' type='standard_car' route='N_S' depart='396.0' departLane='random' departSpeed='10' />
    <vehicle id='N_W_98' type='standard_car' route='N_W' depart='397.0' departLane='random' departSpeed='10' />
    <vehicle id='S_N_99' type='standard_car' route='S_N' depart='397.0' departLane='random' departSpeed='10' />
    <vehicle id='N_W_100' type='standard_car' route='N_W' depart='400.0' departLane='random' departSpeed='10' />
    <vehicle id='E_N_101' type='standard_car' route='E_N' depart='401.0' departLane='random' departSpeed='10' />
    <vehicle id='N_S_102' type='standard_car' route='N_S' depart='406.0' departLane='random' departSpeed='10' />
    <vehicle id='E_W_103' type='standard_car' route='E_W' depart='407.0' departLane='random' departSpeed='10' />
    <vehicle id='N_S_104' type='standard_car' route='N_S' depart='407.0' departLane='random' departSpeed='10' />
    <vehicle id='E_W_105' type='standard_car' route='E_W' depart='410.0' departLane='random' departSpeed='10' />
    <vehicle id='E_W_106' type='standard_car' route='E_W' depart='412.0' departLane='random' departSpeed='10' />
    <vehicle id='W_E_107' type='standard_car' route='W_E' depart='412.0' departLane='random' departSpeed='10' />
    <vehicle id='W_S_108' type='standard_car' route='W_S' depart='413.0' departLane='random' departSpeed='10' />
    <vehicle id='W_E_109' type='standard_car' route='W_E' depart='415.0' departLane='random' departSpeed='10' />
    <vehicle id='N_S_110' type='standard_car' route='N_S' depart='417.0' departLane='random' departSpeed='10' />
    <vehicle id='N_S_111' type='standard_car' route='N_S' depart='429.0' departLane='random' departSpeed='10' />
    <vehicle id='E_W_112' type='standard_car' route='E_W' depart='430.0' departLane='random' departSpeed='10' />
    <vehicle id='W_S_113' type='standard_car' route='W_S' depart='432.0' departLane='random' departSpeed='10' />
    <vehicle id='S_N_114' type='standard_car' route='S_N' depart='433.0' departLane='random' departSpeed='10' />
    <vehicle id='W_E_115' type='standard_car' route='W_E' depart='434.0' departLane='random' departSpeed='10' />
    <vehicle id='S_N_116' type='standard_car' route='S_N' depart='434.0' departLane='random' departSpeed='10' />
    <vehicle id='N_S_117' type='standard_car' route='N_S' depart='435.0' departLane='random' departSpeed='10' />
    <vehicle id='S_E_118' type='standard_car' route='S_E' depart='436.0' departLane='random' departSpeed='10' />
    <vehicle id='E_N_119' type='standard_car' route='E_N' depart='436.0' departLane='random' departSpeed='10' />
    <vehicle id='W_E_120' type='standard_car' route='W_E' depart='436.0' departLane='random' departSpeed='10' />
    <vehicle id='E_N_121' type='standard_car' route='E_N' depart='441.0' departLane='random' departSpeed='10' />
    <vehicle id='N_S_122' type='standard_car' route='N_S' depart='443.0' departLane='random' departSpeed='10' />
    <vehicle id='N_S_123' type='standard_car' route='N_S' depart='448.0' departLane='random' departSpeed='10' />
    <vehicle id='S_N_124' type='standard_car' route='S_N' depart='449.0' departLane='random' departSpeed='10' />
    <vehicle id='S_N_125' type='standard_car' route='S_N' depart='449.0' departLane='random' departSpeed='10' />
    <vehicle id='N_S_126' type='standard_car' route='N_S' depart='449.0' departLane='random' departSpeed='10' />
    <vehicle id='S_N_127' type='standard_car' route='S_N' depart='451.0' departLane='random' departSpeed='10' />
    <vehicle id='W_E_128' type='standard_car' route='W_E' depart='452.0' departLane='random' departSpeed='10' />
    <vehicle id='W_E_129' type='standard_car' route='W_E' depart='453.0' departLane='random' departSpeed='10' />
    <vehicle id='E_W_130' type='standard_car' route='E_W' depart='458.0' departLane='random' departSpeed='10' />
    <vehicle id='E_W_131' type='standard_car' route='E_W' depart='461.0' departLane='random' departSpeed='10' />
    <vehicle id='E_N_132' type='standard_car' route='E_N' depart='464.0' departLane='random' departSpeed='10' />
    <vehicle id='S_E_133' type='standard_car' route='S_E' depart='466.0' departLane='random' departSpeed='10' />
    <vehicle id='S_N_134' type='standard_car' route='S_N' depart='468.0' departLane='random' departSpeed='10' />
    <vehicle id='W_E_135' type='standard_car' route='W_E' depart='468.0' departLane='random' departSpeed='10' />
    <vehicle id='E_W_136' type='standard_car' route='E_W' depart='471.0' departLane='random' departSpeed='10' />
    <vehicle id='E_W_137' type='standard_car' route='E_W' depart='474.0' departLane='random' departSpeed='10' />
    <vehicle id='S_N_138' type='standard_car' route='S_N' depart='474.0' departLane='random' departSpeed='10' />
    <vehicle id='S_N_139' type='standard_car' route='S_N' depart='475.0' departLane='random' departSpeed='10' />
    <vehicle id='N_S_140' type='standard_car' route='N_S' depart='475.0' departLane='random' departSpeed='10' />
    <vehicle id='E_N_141' type='standard_car' route='E_N' depart='476.0' departLane='random' departSpeed='10' />
    <vehicle id='S_N_142' type='standard_car' route='S_N' depart='479.0' departLane='random' departSpeed='10' />
    <vehicle id='S_N_143' type='standard_car' route='S_N' depart='479.0' departLane='random' departSpeed='10' />
    <vehicle id='E_N_144' type='standard_car' route='E_N' depart='480.0' departLane='random' departSpeed='10' />
    <vehicle id='W_S_145' type='standard_car' route='W_S' depart='482.0' departLane='random' departSpeed='10' />
    <vehicle id='N_W_146' type='standard_car' route='N_W' depart='486.0' departLane='random' departSpeed='10' />
    <vehicle id='E_W_147' type='standard_car' route='E_W' depart='487.0' departLane='random' departSpeed='10' />
    <vehicle id='W_E_148' type='standard_car' route='W_E' depart='488.0' departLane='random' departSpeed='10' />
    <vehicle id='W_S_149' type='standard_car' route='W_S' depart='488.0' departLane='random' departSpeed='10' />
    <vehicle id='W_S_150' type='standard_car' route='W_S' depart='490.0' departLane='random' departSpeed='10' />
    <vehicle id='W_E_151' type='standard_car' route='W_E' depart='494.0' departLane='random' departSpeed='10' />
    <vehicle id='W_E_152' type='standard_car' route='W_E' depart='495.0' departLane='random' departSpeed='10' />
    <vehicle id='N_W_153' type='standard_car' route='N_W' depart='496.0' departLane='random' departSpeed='10' />
    <vehicle id='E_N_154' type='standard_car' route='E_N' depart='502.0' departLane='random' departSpeed='10' />
    <vehicle id='E_W_155' type='standard_car' route='E_W' depart='504.0' departLane='random' departSpeed='10' />
    <vehicle id='W_E_156' type='standard_car' route='W_E' depart='506.0' departLane='random' departSpeed='10' />
    <vehicle id='E_W_157' type='standard_car' route='E_W' depart='511.0' departLane='random' departSpeed='10' />
    <vehicle id='E_N_158' type='standard_car' route='E_N' depart='512.0' departLane='random' departSpeed='10' />
    <vehicle id='N_W_159' type='standard_car' route='N_W' depart='513.0' departLane='random' departSpeed='10' />
    <vehicle id='W_E_160' type='standard_car' route='W_E' depart='515.0' departLane='random' departSpeed='10' />
    <vehicle id='N_S_161' type='standard_car' route='N_S' depart='516.0' departLane='random' departSpeed='10' />
    <vehicle id='W_S_162' type='standard_car' route='W_S' depart='517.0' departLane='random' departSpeed='10' />
    <vehicle id='E_N_163' type='standard_car' route='E_N' depart='518.0' departLane='random' departSpeed='10' />
    <vehicle id='E_N_164' type='standard_car' route='E_N' depart='520.0' departLane='random' departSpeed='10' />
    <vehicle id='N_S_165' type='standard_car' route='N_S' depart='520.0' departLane='random' departSpeed='10' />
    <vehicle id='N_S_166' type='standard_car' route='N_S' depart='522.0' departLane='random' departSpeed='10' />
    <vehicle id='N_W_167' type='standard_car' route='N_W' depart='523.0' departLane='random' departSpeed='10' />
    <vehicle id='N_S_168' type='standard_car' route='N_S' depart='528.0' departLane='random' departSpeed='10' />
    <vehicle id='S_E_169' type='standard_car' route='S_E' depart='528.0' departLane='random' departSpeed='10' />
    <vehicle id='S_N_170' type='standard_car' route='S_N' depart='529.0' departLane='random' departSpeed='10' />
    <vehicle id='W_E_171' type='standard_car' route='W_E' depart='531.0' departLane='random' departSpeed='10' />
    <vehicle id='E_W_172' type='standard_car' route='E_W' depart='533.0' departLane='random' departSpeed='10' />
    <vehicle id='W_E_173' type='standard_car' route='W_E' depart='534.0' departLane='random' departSpeed='10' />
    <vehicle id='S_E_174' type='standard_car' route='S_E' depart='537.0' departLane='random' departSpeed='10' />
    <vehicle id='S_N_175' type='standard_car' route='S_N' depart='538.0' departLane='random' departSpeed='10' />
    <vehicle id='W_S_176' type='standard_car' route='W_S' depart='539.0' departLane='random' departSpeed='10' />
    <vehicle id='E_W_177' type='standard_car' route='E_W' depart='539.0' departLane='random' departSpeed='10' />
    <vehicle id='S_N_178' type='standard_car' route='S_N' depart='539.0' departLane='random' departSpeed='10' />
    <vehicle id='W_S_179' type='standard_car' route='W_S' depart='540.0' departLane='random' departSpeed='10' />
    <vehicle id='W_E_180' type='standard_car' route='W_E' depart='540.0' departLane='random' departSpeed='10' />
    <vehicle id='N_S_181' type='standard_car' route='N_S' depart='540.0' departLane='random' departSpeed='10' />
    <vehicle id='S_N_182' type='standard_car' route='S_N' depart='542.0' departLane='random' departSpeed='10' />
    <vehicle id='E_N_183' type='standard_car' route='E_N' depart='542.0' departLane='random' departSpeed='10' />
    <vehicle id='W_E_184' type='standard_car' route='W_E' depart='542.0' departLane='random' departSpeed='10' />
    <vehicle id='W_S_185' type='standard_car' route='W_S' depart='544.0' departLane='random' departSpeed='10' />
    <vehicle id='N_W_186' type='standard_car' route='N_W' depart='548.0' departLane='random' departSpeed='10' />
    <vehicle id='W_S_187' type='standard_car' route='W_S' depart='548.0' departLane='random' departSpeed='10' />
    <vehicle id='N_W_188' type='standard_car' route='N_W' depart='550.0' departLane='random' departSpeed='10' />
    <vehicle id='S_E_189' type='standard_car' route='S_E' depart='550.0' departLane='random' departSpeed='10' />
    <vehicle id='W_E_190' type='standard_car' route='W_E' depart='551.0' departLane='random' departSpeed='10' />
    <vehicle id='E_N_191' type='standard_car' route='E_N' depart='551.0' departLane='random' departSpeed='10' />
    <vehicle id='N_S_192' type='standard_car' route='N_S' depart='555.0' departLane='random' departSpeed='10' />
    <vehicle id='W_E_193' type='standard_car' route='W_E' depart='556.0' departLane='random' departSpeed='10' />
    <vehicle id='S_E_194' type='standard_car' route='S_E' depart='558.0' departLane='random' departSpeed='10' />
    <vehicle id='N_W_195' type='standard_car' route='N_W' depart='559.0' departLane='random' departSpeed='10' />
    <vehicle id='N_S_196' type='standard_car' route='N_S' depart='559.0' departLane='random' departSpeed='10' />
    <vehicle id='E_N_197' type='standard_car' route='E_N' depart='560.0' departLane='random' departSpeed='10' />
    <vehicle id='S_N_198' type='standard_car' route='S_N' depart='560.0' departLane='random' departSpeed='10' />
    <vehicle id='E_W_199' type='standard_car' route='E_W' depart='562.0' departLane='random' departSpeed='10' />
    <vehicle id='S_N_200' type='standard_car' route='S_N' depart='562.0' departLane='random' departSpeed='10' />
    <vehicle id='N_S_201' type='standard_car' route='N_S' depart='562.0' departLane='random' departSpeed='10' />
    <vehicle id='E_W_202' type='standard_car' route='E_W' depart='562.0' departLane='random' departSpeed='10' />
    <vehicle id='N_W_203' type='standard_car' route='N_W' depart='564.0' departLane='random' departSpeed='10' />
    <vehicle id='S_E_204' type='standard_car' route='S_E' depart='565.0' departLane='random' departSpeed='10' />
    <vehicle id='N_W_205' type='standard_car' route='N_W' depart='566.0' departLane='random' departSpeed='10' />
    <vehicle id='W_E_206' type='standard_car' route='W_E' depart='568.0' departLane='random' departSpeed='10' />
    <vehicle id='S_E_207' type='standard_car' route='S_E' depart='568.0' departLane='random' departSpeed='10' />
    <vehicle id='E_N_208' type='standard_car' route='E_N' depart='569.0' departLane='random' departSpeed='10' />
    <vehicle id='E_W_209' type='standard_car' route='E_W' depart='570.0' departLane='random' departSpeed='10' />
    <vehicle id='S_E_210' type='standard_car' route='S_E' depart='570.0' departLane='random' departSpeed='10' />
    <vehicle id='S_N_211' type='standard_car' route='S_N' depart='571.0' departLane='random' departSpeed='10' />
    <vehicle id='W_S_212' type='standard_car' route='W_S' depart='575.0' departLane='random' departSpeed='10' />
    <vehicle id='S_N_213' type='standard_car' route='S_N' depart='577.0' departLane='random' departSpeed='10' />
    <vehicle id='W_E_214' type='standard_car' route='W_E' depart='579.0' departLane='random' departSpeed='10' />
    <vehicle id='N_W_215' type='standard_car' route='N_W' depart='581.0' departLane='random' departSpeed='10' />
    <vehicle id='S_N_216' type='standard_car' route='S_N' depart='581.0' departLane='random' departSpeed='10' />
    <vehicle id='E_W_217' type='standard_car' route='E_W' depart='582.0' departLane='random' departSpeed='10' />
    <vehicle id='E_N_218' type='standard_car' route='E_N' depart='583.0' departLane='random' departSpeed='10' />
    <vehicle id='W_E_219' type='standard_car' route='W_E' depart='584.0' departLane='random' departSpeed='10' />
    <vehicle id='N_S_220' type='standard_car' route='N_S' depart='586.0' departLane='random' departSpeed='10' />
    <vehicle id='S_N_221' type='standard_car' route='S_N' depart='588.0' departLane='random' departSpeed='10' />
    <vehicle id='N_W_222' type='standard_car' route='N_W' depart='589.0' departLane='random' departSpeed='10' />
    <vehicle id='W_E_223' type='standard_car' route='W_E' depart='589.0' departLane='random' departSpeed='10' />
    <vehicle id='N_W_224' type='standard_car' route='N_W' depart='592.0' departLane='random' departSpeed='10' />
    <vehicle id='S_N_225' type='standard_car' route='S_N' depart='593.0' departLane='random' departSpeed='10' />
    <vehicle id='N_S_226' type='standard_car' route='N_S' depart='595.0' departLane='random' departSpeed='10' />
    <vehicle id='W_S_227' type='standard_car' route='W_S' depart='595.0' departLane='random' departSpeed='10' />
    <vehicle id='E_W_228' type='standard_car' route='E_W' depart='595.0' departLane='random' departSpeed='10' />
    <vehicle id='N_S_229' type='standard_car' route='N_S' depart='596.0' departLane='random' departSpeed='10' />
    <vehicle id='W_E_230' type='standard_car' route='W_E' depart='597.0' departLane='random' departSpeed='10' />
    <vehicle id='W_E_231' type='standard_car' route='W_E' depart='597.0' departLane='random' departSpeed='10' />
    <vehicle id='E_N_232' type='standard_car' route='E_N' depart='599.0' departLane='random' departSpeed='10' />
    <vehicle id='N_S_233' type='standard_car' route='N_S' depart='600.0' departLane='random' departSpeed='10' />
    <vehicle id='S_N_234' type='standard_car' route='S_N' depart='600.0' departLane='random' departSpeed='10' />
    <vehicle id='E_N_235' type='standard_car' route='E_N' depart='601.0' departLane='random' departSpeed='10' />
    <vehicle id='N_S_236' type='standard_car' route='N_S' depart='601.0' departLane='random' departSpeed='10' />
    <vehicle id='E_N_237' type='standard_car' route='E_N' depart='602.0' departLane='random' departSpeed='10' />
    <vehicle id='E_W_238' type='standard_car' route='E_W' depart='604.0' departLane='random' departSpeed='10' />
    <vehicle id='N_W_239' type='standard_car' route='N_W' depart='605.0' departLane='random' departSpeed='10' />
    <vehicle id='E_W_240' type='standard_car' route='E_W' depart='606.0' departLane='random' departSpeed='10' />
    <vehicle id='E_W_241' type='standard_car' route='E_W' depart='607.0' departLane='random' departSpeed='10' />
    <vehicle id='E_N_242' type='standard_car' route='E_N' depart='608.0' departLane='random' departSpeed='10' />
    <vehicle id='N_W_243' type='standard_car' route='N_W' depart='608.0' departLane='random' departSpeed='10' />
    <vehicle id='E_N_244' type='standard_car' route='E_N' depart='608.0' departLane='random' departSpeed='10' />
    <vehicle id='N_S_245' type='standard_car' route='N_S' depart='608.0' departLane='random' departSpeed='10' />
    <vehicle id='S_N_246' type='standard_car' route='S_N' depart='609.0' departLane='random' departSpeed='10' />
    <vehicle id='W_E_247' type='standard_car' route='W_E' depart='609.0' departLane='random' departSpeed='10' />
    <vehicle id='S_E_248' type='standard_car' route='S_E' depart='610.0' departLane='random' departSpeed='10' />
    <vehicle id='W_E_249' type='standard_car' route='W_E' depart='611.0' departLane='random' departSpeed='10' />
    <vehicle id='W_E_250' type='standard_car' route='W_E' depart='611.0' departLane='random' departSpeed='10' />
    <vehicle id='E_N_251' type='standard_car' route='E_N' depart='614.0' departLane='random' departSpeed='10' />
    <vehicle id='E_W_252' type='standard_car' route='E_W' depart='615.0' departLane='random' departSpeed='10' />
    <vehicle id='S_E_253' type='standard_car' route='S_E' depart='616.0' departLane='random' departSpeed='10' />
    <vehicle id='W_S_254' type='standard_car' route='W_S' depart='617.0' departLane='random' departSpeed='10' />
    <vehicle id='W_S_255' type='standard_car' route='W_S' depart='617.0' departLane='random' departSpeed='10' />
    <vehicle id='S_E_256' type='standard_car' route='S_E' depart='618.0' departLane='random' departSpeed='10' />
    <vehicle id='N_W_257' type='standard_car' route='N_W' depart='621.0' departLane='random' departSpeed='10' />
    <vehicle id='N_W_258' type='standard_car' route='N_W' depart='622.0' departLane='random' departSpeed='10' />