<routes>
    <vType id="standard_car" length="5.0" maxSpeed="11.11" minGap="2.5" accel="2.0" decel="4.5" />
    <route id="N_S" edges="road_1_2_3 road_1_1_3"/>
    <route id="N_E" edges="road_1_2_3 road_1_1_0"/>
    <route id="N_W" edges="road_1_2_3 road_1_1_2"/>
    <route id="S_W" edges="road_1_0_1 road_1_1_2"/>
    <route id="S_E" edges="road_1_0_1 road_1_1_0"/>
    <route id="S_N" edges="road_1_0_1 road_1_1_1"/>

    <route id="W_E" edges="road_0_1_0 road_1_1_0"/>
    <route id="W_N" edges="road_0_1_0 road_1_1_1"/>
    <route id="W_S" edges="road_0_1_0 road_1_1_3"/>
    <route id="E_N" edges="road_2_1_2 road_1_1_1"/>
    <route id="E_S" edges="road_2_1_2 road_1_1_3"/>
    <route id="E_W" edges="road_2_1_2 road_1_1_2"/>
            
    <vehicle id='S_N_0' type='standard_car' route='S_N' depart='31.0' departLane='random' departSpeed='10' />
    <vehicle id='E_W_1' type='standard_car' route='E_W' depart='39.0' departLane='random' departSpeed='10' />
    <vehicle id='W_S_2' type='standard_car' route='W_S' depart='44.0' departLane='random' departSpeed='10' />
    <vehicle id='S_N_3' type='standard_car' route='S_N' depart='53.0' departLane='random' departSpeed='10' />
    <vehicle id='N_S_4' type='standard_car' route='N_S' depart='56.0' departLane='random' departSpeed='10' />
    <vehicle id='S_N_5' type='standard_car' route='S_N' depart='64.0' departLane='random' departSpeed='10' />
    <vehicle id='W_S_6' type='standard_car' route='W_S' depart='70.0' departLane='random' departSpeed='10' />
    <vehicle id='W_E_7' type='standard_car' route='W_E' depart='75.0' departLane='random' departSpeed='10' />
    <vehicle id='N_S_8' type='standard_car' route='N_S' depart='77.0' departLane='random' departSpeed='10' />
    <vehicle id='N_S_9' type='standard_car' route='N_S' depart='81.0' departLane='random' departSpeed='10' />
    <vehicle id='W_S_10' type='standard_car' route='W_S' depart='82.0' departLane='random' departSpeed='10' />
    <vehicle id='E_W_11' type='standard_car' route='E_W' depart='83.0' departLane='random' departSpeed='10' />
    <vehicle id='W_E_12' type='standard_car' route='W_E' depart='86.0' departLane='random' departSpeed='10' />
    <vehicle id='N_S_13' type='standard_car' route='N_S' depart='114.0' departLane='random' departSpeed='10' />
    <vehicle id='W_E_14' type='standard_car' route='W_E' depart='117.0' departLane='random' departSpeed='10' />
    <vehicle id='N_W_15' type='standard_car' route='N_W' depart='118.0' departLane='random' departSpeed='10' />
    <vehicle id='S_E_16' type='standard_car' route='S_E' depart='118.0' departLane='random' departSpeed='10' />
    <vehicle id='E_W_17' type='standard_car' route='E_W' depart='119.0' departLane='random' departSpeed='10' />
    <vehicle id='S_N_18' type='standard_car' route='S_N' depart='119.0' departLane='random' departSpeed='10' />
    <vehicle id='E_W_19' type='standard_car' route='E_W' depart='125.0' departLane='random' departSpeed='10' />
    <vehicle id='W_S_20' type='standard_car' route='W_S' depart='126.0' departLane='random' departSpeed='10' />
    <vehicle id='E_N_21' type='standard_car' route='E_N' depart='128.0' departLane='random' departSpeed='10' />
    <vehicle id='E_W_22' type='standard_car' route='E_W' depart='131.0' departLane='random' departSpeed='10' />
    <vehicle id='N_W_23' type='standard_car' route='N_W' depart='131.0' departLane='random' departSpeed='10' />
    <vehicle id='E_W_24' type='standard_car' route='E_W' depart='131.0' departLane='random' departSpeed='10' />
    <vehicle id='W_E_25' type='standard_car' route='W_E' depart='133.0' departLane='random' departSpeed='10' />
    <vehicle id='S_N_26' type='standard_car' route='S_N' depart='134.0' departLane='random' departSpeed='10' />
    <vehicle id='E_W_27' type='standard_car' route='E_W' depart='140.0' departLane='random' departSpeed='10' />
    <vehicle id='W_E_28' type='standard_car' route='W_E' depart='142.0' departLane='random' departSpeed='10' />
    <vehicle id='W_S_29' type='standard_car' route='W_S' depart='144.0' departLane='random' departSpeed='10' />
    <vehicle id='E_W_30' type='standard_car' route='E_W' depart='149.0' departLane='random' departSpeed='10' />
    <vehicle id='E_W_31' type='standard_car' route='E_W' depart='154.0' departLane='random' departSpeed='10' />
    <vehicle id='E_W_32' type='standard_car' route='E_W' depart='155.0' departLane='random' departSpeed='10' />
    <vehicle id='W_E_33' type='standard_car' route='W_E' depart='157.0' departLane='random' departSpeed='10' />
    <vehicle id='S_N_34' type='standard_car' route='S_N' depart='157.0' departLane='random' departSpeed='10' />
    <vehicle id='S_N_35' type='standard_car' route='S_N' depart='157.0' departLane='random' departSpeed='10' />
    <vehicle id='S_E_36' type='standard_car' route='S_E' depart='158.0' departLane='random' departSpeed='10' />
    <vehicle id='N_S_37' type='standard_car' route='N_S' depart='158.0' departLane='random' departSpeed='10' />
    <vehicle id='N_S_38' type='standard_car' route='N_S' depart='166.0' departLane='random' departSpeed='10' />
    <vehicle id='N_W_39' type='standard_car' route='N_W' depart='167.0' departLane='random' departSpeed='10' />
    <vehicle id='S_N_40' type='standard_car' route='S_N' depart='171.0' departLane='random' departSpeed='10' />
    <vehicle id='N_S_41' type='standard_car' route='N_S' depart='174.0' departLane='random' departSpeed='10' />
    <vehicle id='E_W_42' type='standard_car' route='E_W' depart='177.0' departLane='random' departSpeed='10' />
    <vehicle id='W_E_43' type='standard_car' route='W_E' depart='178.0' departLane='random' departSpeed='10' />
    <vehicle id='N_W_44' type='standard_car' route='N_W' depart='180.0' departLane='random' departSpeed='10' />
    <vehicle id='E_N_45' type='standard_car' route='E_N' depart='180.0' departLane='random' departSpeed='10' />
    <vehicle id='N_S_46' type='standard_car' route='N_S' depart='181.0' departLane='random' departSpeed='10' />
    <vehicle id='E_W_47' type='standard_car' route='E_W' depart='184.0' departLane='random' departSpeed='10' />
    <vehicle id='W_S_48' type='standard_car' route='W_S' depart='185.0' departLane='random' departSpeed='10' />
    <vehicle id='N_W_49' type='standard_car' route='N_W' depart='185.0' departLane='random' departSpeed='10' />
    <vehicle id='N_S_50' type='standard_car' route='N_S' depart='186.0' departLane='random' departSpeed='10' />
    <vehicle id='S_N_51' type='standard_car' route='S_N' depart='187.0' departLane='random' departSpeed='10' />
    <vehicle id='S_E_52' type='standard_car' route='S_E' depart='190.0' departLane='random' departSpeed='10' />
    <vehicle id='N_S_53' type='standard_car' route='N_S' depart='196.0' departLane='random' departSpeed='10' />
    <vehicle id='W_E_54' type='standard_car' route='W_E' depart='198.0' departLane='random' departSpeed='10' />
    <vehicle id='S_N_55' type='standard_car' route='S_N' depart='199.0' departLane='random' departSpeed='10' />
    <vehicle id='N_S_56' type='standard_car' route='N_S' depart='207.0' departLane='random' departSpeed='10' />
    <vehicle id='N_S_57' type='standard_car' route='N_S' depart='209.0' departLane='random' departSpeed='10' />
    <vehicle id='E_N_58' type='standard_car' route='E_N' depart='211.0' departLane='random' departSpeed='10' />
    <vehicle id='E_W_59' type='standard_car' route='E_W' depart='211.0' departLane='random' departSpeed='10' />
    <vehicle id='S_N_60' type='standard_car' route='S_N' depart='211.0' departLane='random' departSpeed='10' />
    <vehicle id='S_E_61' type='standard_car' route='S_E' depart='212.0' departLane='random' departSpeed='10' />
    <vehicle id='N_W_62' type='standard_car' route='N_W' depart='214.0' departLane='random' departSpeed='10' />
    <vehicle id='E_W_63' type='standard_car' route='E_W' depart='216.0' departLane='random' departSpeed='10' />
    <vehicle id='W_S_64' type='standard_car' route='W_S' depart='219.0' departLane='random' departSpeed='10' />
    <vehicle id='E_W_65' type='standard_car' route='E_W' depart='219.0' departLane='random' departSpeed='10' />
    <vehicle id='N_W_66' type='standard_car' route='N_W' depart='220.0' departLane='random' departSpeed='10' />
    <vehicle id='W_E_67' type='standard_car' route='W_E' depart='222.0' departLane='random' departSpeed='10' />
    <vehicle id='W_E_68' type='standard_car' route='W_E' depart='222.0' departLane='random' departSpeed='10' />
    <vehicle id='E_N_69' type='standard_car' route='E_N' depart='223.0' departLane='random' departSpeed='10' />
    <vehicle id='W_S_70' type='standard_car' route='W_S' depart='223.0' departLane='random' departSpeed='10' />
    <vehicle id='E_W_71' type='standard_car' route='E_W' depart='225.0' departLane='random' departSpeed='10' />
    <vehicle id='S_N_72' type='standard_car' route='S_N' depart='226.0' departLane='random' departSpeed='10' />
    <vehicle id='W_E_73' type='standard_car' route='W_E' depart='228.0' departLane='random' departSpeed='10' />
    <vehicle id='W_E_74' type='standard_car' route='W_E' depart='230.0' departLane='random' departSpeed='10' />
    <vehicle id='S_N_75' type='standard_car' route='S_N' depart='234.0' departLane='random' departSpeed='10' />
    <vehicle id='S_E_76' type='standard_car' route='S_E' depart='235.0' departLane='random' departSpeed='10' />
    <vehicle id='W_E_77' type='standard_car' route='W_E' depart='240.0' departLane='random' departSpeed='10' />
    <vehicle id='E_N_78' type='standard_car' route='E_N' depart='241.0' departLane='random' departSpeed='10' />
    <vehicle id='N_W_79' type='standard_car' route='N_W' depart='242.0' departLane='random' departSpeed='10' />
    <vehicle id='S_E_80' type='standard_car' route='S_E' depart='243.0' departLane='random' departSpeed='10' />
    <vehicle id='E_W_81' type='standard_car' route='E_W' depart='246.0' departLane='random' departSpeed='10' />
    <vehicle id='S_N_82' type='standard_car' route='S_N' depart='249.0' departLane='random' departSpeed='10' />
    <vehicle id='W_E_83' type='standard_car' route='W_E' depart='252.0' departLane='random' departSpeed='10' />
    <vehicle id='E_W_84' type='standard_car' route='E_W' depart='253.0' departLane='random' departSpeed='10' />
    <vehicle id='W_E_85' type='standard_car' route='W_E' depart='255.0' departLane='random' departSpeed='10' />
    <vehicle id='N_S_86' type='standard_car' route='N_S' depart='256.0' departLane='random' departSpeed='10' />
    <vehicle id='E_N_87' type='standard_car' route='E_N' depart='259.0' departLane='random' departSpeed='10' />
    <vehicle id='S_E_88' type='standard_car' route='S_E' depart='263.0' departLane='random' departSpeed='10' />
    <vehicle id='N_W_89' type='standard_car' route='N_W' depart='269.0' departLane='random' departSpeed='10' />
    <vehicle id='E_W_90' type='standard_car' route='E_W' depart='269.0' departLane='random' departSpeed='10' />
    <vehicle id='E_W_91' type='standard_car' route='E_W' depart='269.0' departLane='random' departSpeed='10' />
    <vehicle id='S_E_92' type='standard_car' route='S_E' depart='270.0' departLane='random' departSpeed='10' />
    <vehicle id='E_W_93' type='standard_car' route='E_W' depart='274.0' departLane='random' departSpeed='10' />
    <vehicle id='S_E_94' type='standard_car' route='S_E' depart='276.0' departLane='random' departSpeed='10' />
    <vehicle id='E_W_95' type='standard_car' route='E_W' depart='277.0' departLane='random' departSpeed='10' />
    <vehicle id='E_W_96' type='standard_car' route='E_W' depart='277.0' departLane='random' departSpeed='10' />
    <vehicle id='W_S_97' type='standard_car' route='W_S' depart='278.0' departLane='random' departSpeed='10' />
    <vehicle id='N_W_98' type='standard_car' route='N_W' depart='278.0' departLane='random' departSpeed='10' />
    <vehicle id='E_W_99' type='standard_car' route='E_W' depart='279.0' departLane='random' departSpeed='10' />
    <vehicle id='S_E_100' type='standard_car' route='S_E' depart='279.0' departLane='random' departSpeed='10' />
    <vehicle id='S_N_101' type='standard_car' route='S_N' depart='280.0' departLane='random' departSpeed='10' />
    <vehicle id='E_N_102' type='standard_car' route='E_N' depart='282.0' departLane='random' departSpeed='10' />
    <vehicle id='N_W_103' type='standard_car' route='N_W' depart='282.0' departLane='random' departSpeed='10' />
    <vehicle id='W_S_104' type='standard_car' route='W_S' depart='283.0' departLane='random' departSpeed='10' />
    <vehicle id='W_S_105' type='standard_car' route='W_S' depart='286.0' departLane='random' departSpeed='10' />
    <vehicle id='N_S_106' type='standard_car' route='N_S' depart='290.0' departLane='random' departSpeed='10' />
    <vehicle id='S_N_107' type='standard_car' route='S_N' depart='294.0' departLane='random' departSpeed='10' />
    <vehicle id='N_W_108' type='standard_car' route='N_W' depart='295.0' departLane='random' departSpeed='10' />
    <vehicle id='E_N_109' type='standard_car' route='E_N' depart='295.0' departLane='random' departSpeed='10' />
    <vehicle id='E_N_110' type='standard_car' route='E_N' depart='296.0' departLane='random' departSpeed='10' />
    <vehicle id='S_N_111' type='standard_car' route='S_N' depart='299.0' departLane='random' departSpeed='10' />
    <vehicle id='E_N_112' type='standard_car' route='E_N' depart='304.0' departLane='random' departSpeed='10' />
    <vehicle id='E_N_113' type='standard_car' route='E_N' depart='305.0' departLane='random' departSpeed='10' />
    <vehicle id='W_E_114' type='standard_car' route='W_E' depart='306.0' departLane='random' departSpeed='10' />
    <vehicle id='S_N_115' type='standard_car' route='S_N' depart='306.0' departLane='random' departSpeed='10' />
    <vehicle id='S_N_116' type='standard_car' route='S_N' depart='307.0' departLane='random' departSpeed='10' />
    <vehicle id='S_N_117' type='standard_car' route='S_N' depart='307.0' departLane='random' departSpeed='10' />
    <vehicle id='S_N_118' type='standard_car' route='S_N' depart='307.0' departLane='random' departSpeed='10' />
    <vehicle id='W_E_119' type='standard_car' route='W_E' depart='308.0' departLane='random' departSpeed='10' />
    <vehicle id='S_N_120' type='standard_car' route='S_N' depart='308.0' departLane='random' departSpeed='10' />
    <vehicle id='N_W_121' type='standard_car' route='N_W' depart='309.0' departLane='random' departSpeed='10' />
    <vehicle id='N_S_122' type='standard_car' route='N_S' depart='309.0' departLane='random' departSpeed='10' />
    <vehicle id='W_E_123' type='standard_car' route='W_E' depart='312.0' departLane='random' departSpeed='10' />
    <vehicle id='E_N_124' type='standard_car' route='E_N' depart='312.0' departLane='random' departSpeed='10' />
    <vehicle id='N_S_125' type='standard_car' route='N_S' depart='316.0' departLane='random' departSpeed='10' />
    <vehicle id='W_E_126' type='standard_car' route='W_E' depart='317.0' departLane='random' departSpeed='10' />
    <vehicle id='N_S_127' type='standard_car' route='N_S' depart='319.0' departLane='random' departSpeed='10' />
    <vehicle id='E_N_128' type='standard_car' route='E_N' depart='321.0' departLane='random' departSpeed='10' />
    <vehicle id='W_S_129' type='standard_car' route='W_S' depart='322.0' departLane='random' departSpeed='10' />
    <vehicle id='S_N_130' type='standard_car' route='S_N' depart='324.0' departLane='random' departSpeed='10' />
    <vehicle id='S_N_131' type='standard_car' route='S_N' depart='325.0' departLane='random' departSpeed='10' />
    <vehicle id='W_E_132' type='standard_car' route='W_E' depart='328.0' departLane='random' departSpeed='10' />
    <vehicle id='S_N_133' type='standard_car' route='S_N' depart='329.0' departLane='random' departSpeed='10' />
    <vehicle id='N_S_134' type='standard_car' route='N_S' depart='330.0' departLane='random' departSpeed='10' />
    <vehicle id='W_E_135' type='standard_car' route='W_E' depart='331.0' departLane='random' departSpeed='10' />
    <vehicle id='E_W_136' type='standard_car' route='E_W' depart='332.0' departLane='random' departSpeed='10' />
    <vehicle id='E_N_137' type='standard_car' route='E_N' depart='334.0' departLane='random' departSpeed='10' />
    <vehicle id='W_E_138' type='standard_car' route='W_E' depart='334.0' departLane='random' departSpeed='10' />
    <vehicle id='W_S_139' type='standard_car' route='W_S' depart='334.0' departLane='random' departSpeed='10' />
    <vehicle id='W_E_140' type='standard_car' route='W_E' depart='335.0' departLane='random' departSpeed='10' />
    <vehicle id='N_W_141' type='standard_car' route='N_W' depart='338.0' departLane='random' departSpeed='10' />
    <vehicle id='S_N_142' type='standard_car' route='S_N' depart='340.0' departLane='random' departSpeed='10' />
    <vehicle id='W_E_143' type='standard_car' route='W_E' depart='340.0' departLane='random' departSpeed='10' />
    <vehicle id='S_E_144' type='standard_car' route='S_E' depart='343.0' departLane='random' departSpeed='10' />
    <vehicle id='S_N_145' type='standard_car' route='S_N' depart='343.0' departLane='random' departSpeed='10' />
    <vehicle id='W_S_146' type='standard_car' route='W_S' depart='344.0' departLane='random' departSpeed='10' />
    <vehicle id='W_E_147' type='standard_car' route='W_E' depart='347.0' departLane='random' departSpeed='10' />
    <vehicle id='E_W_148' type='standard_car' route='E_W' depart='347.0' departLane='random' departSpeed='10' />
    <vehicle id='E_W_149' type='standard_car' route='E_W' depart='351.0' departLane='random' departSpeed='10' />
    <vehicle id='S_E_150' type='standard_car' route='S_E' depart='351.0' departLane='random' departSpeed='10' />
    <vehicle id='W_S_151' type='standard_car' route='W_S' depart='351.0' departLane='random' departSpeed='10' />
    <vehicle id='W_E_152' type='standard_car' route='W_E' depart='353.0' departLane='random' departSpeed='10' />
    <vehicle id='N_W_153' type='standard_car' route='N_W' depart='356.0' departLane='random' departSpeed='10' />
    <vehicle id='S_N_154' type='standard_car' route='S_N' depart='359.0' departLane='random' departSpeed='10' />
    <vehicle id='W_S_155' type='standard_car' route='W_S' depart='361.0' departLane='random' departSpeed='10' />
    <vehicle id='E_W_156' type='standard_car' route='E_W' depart='364.0' departLane='random' departSpeed='10' />
    <vehicle id='E_W_157' type='standard_car' route='E_W' depart='365.0' departLane='random' departSpeed='10' />
    <vehicle id='N_W_158' type='standard_car' route='N_W' depart='366.0' departLane='random' departSpeed='10' />
    <vehicle id='S_N_159' type='standard_car' route='S_N' depart='368.0' departLane='random' departSpeed='10' />
    <vehicle id='S_N_160' type='standard_car' route='S_N' depart='368.0' departLane='random' departSpeed='10' />
    <vehicle id='E_W_161' type='standard_car' route='E_W' depart='369.0' departLane='random' departSpeed='10' />
    <vehicle id='W_S_162' type='standard_car' route='W_S' depart='370.0' departLane='random' departSpeed='10' />
    <vehicle id='S_E_163' type='standard_car' route='S_E' depart='370.0' departLane='random' departSpeed='10' />
    <vehicle id='E_N_164' type='standard_car' route='E_N' depart='372.0' departLane='random' departSpeed='10' />
    <vehicle id='N_S_165' type='standard_car' route='N_S' depart='377.0' departLane='random' departSpeed='10' />
    <vehicle id='S_E_166' type='standard_car' route='S_E' depart='378.0' departLane='random' departSpeed='10' />
    <vehicle id='W_E_167' type='standard_car' route='W_E' depart='381.0' departLane='random' departSpeed='10' />
    <vehicle id='S_N_168' type='standard_car' route='S_N' depart='382.0' departLane='random' departSpeed='10' />
    <vehicle id='W_E_169' type='standard_car' route='W_E' depart='386.0' departLane='random' departSpeed='10' />
    <vehicle id='S_N_170' type='standard_car' route='S_N' depart='387.0' departLane='random' departSpeed='10' />
    <vehicle id='S_N_171' type='standard_car' route='S_N' depart='389.0' departLane='random' departSpeed='10' />
    <vehicle id='W_E_172' type='standard_car' route='W_E' depart='390.0' departLane='random' departSpeed='10' />
    <vehicle id='S_E_173' type='standard_car' route='S_E' depart='390.0' departLane='random' departSpeed='10' />
    <vehicle id='E_W_174' type='standard_car' route='E_W' depart='391.0' departLane='random' departSpeed='10' />
    <vehicle id='N_W_175' type='standard_car' route='N_W' depart='391.0' departLane='random' departSpeed='10' />
    <vehicle id='W_S_176' type='standard_car' route='W_S' depart='393.0' departLane='random' departSpeed='10' />
    <vehicle id='E_N_177' type='standard_car' route='E_N' depart='394.0' departLane='random' departSpeed='10' />
    <vehicle id='E_N_178' type='standard_car' route='E_N' depart='394.0' departLane='random' departSpeed='10' />
    <vehicle id='S_E_179' type='standard_car' route='S_E' depart='394.0' departLane='random' departSpeed='10' />
    <vehicle id='W_S_180' type='standard_car' route='W_S' depart='395.0' departLane='random' departSpeed='10' />
    <vehicle id='W_E_181' type='standard_car' route='W_E' depart='397.0' departLane='random' departSpeed='10' />
    <vehicle id='W_S_182' type='standard_car' route='W_S' depart='398.0' departLane='random' departSpeed='10' />
    <vehicle id='E_W_183' type='standard_car' route='E_W' depart='399.0' departLane='random' departSpeed='10' />
    <vehicle id='S_E_184' type='standard_car' route='S_E' depart='401.0' departLane='random' departSpeed='10' />
    <vehicle id='W_E_185' type='standard_car' route='W_E' depart='401.0' departLane='random' departSpeed='10' />
    <vehicle id='E_N_186' type='standard_car' route='E_N' depart='401.0' departLane='random' departSpeed='10' />
    <vehicle id='E_W_187' type='standard_car' route='E_W' depart='402.0' departLane='random' departSpeed='10' />
    <vehicle id='W_E_188' type='standard_car' route='W_E' depart='402.0' departLane='random' departSpeed='10' />
    <vehicle id='E_W_189' type='standard_car' route='E_W' depart='403.0' departLane='random' departSpeed='10' />
    <vehicle id='E_W_190' type='standard_car' route='E_W' depart='404.0' departLane='random' departSpeed='10' />
    <vehicle id='N_W_191' type='standard_car' route='N_W' depart='404.0' departLane='random' departSpeed='10' />
    <vehicle id='E_N_192' type='standard_car' route='E_N' depart='406.0' departLane='random' departSpeed='10' />
    <vehicle id='E_W_193' type='standard_car' route='E_W' depart='408.0' departLane='random' departSpeed='10' />
    <vehicle id='E_W_194' type='standard_car' route='E_W' depart='410.0' departLane='random' departSpeed='10' />
    <vehicle id='W_S_195' type='standard_car' route='W_S' depart='411.0' departLane='random' departSpeed='10' />
    <vehicle id='S_E_196' type='standard_car' route='S_E' depart='413.0' departLane='random' departSpeed='10' />
    <vehicle id='W_E_197' type='standard_car' route='W_E' depart='413.0' departLane='random' departSpeed='10' />
    <vehicle id='W_S_198' type='standard_car' route='W_S' depart='414.0' departLane='random' departSpeed='10' />
    <vehicle id='E_N_199' type='standard_car' route='E_N' depart='416.0' departLane='random' departSpeed='10' />
    <vehicle id='S_N_200' type='standard_car' route='S_N' depart='416.0' departLane='random' departSpeed='10' />
    <vehicle id='E_N_201' type='standard_car' route='E_N' depart='416.0' departLane='random' departSpeed='10' />
    <vehicle id='E_W_202' type='standard_car' route='E_W' depart='417.0' departLane='random' departSpeed='10' />
    <vehicle id='S_E_203' type='standard_car' route='S_E' depart='417.0' departLane='random' departSpeed='10' />
    <vehicle id='N_W_204' type='standard_car' route='N_W' depart='420.0' departLane='random' departSpeed='10' />
    <vehicle id='W_E_205' type='standard_car' route='W_E' depart='422.0' departLane='random' departSpeed='10' />
    <vehicle id='W_E_206' type='standard_car' route='W_E' depart='422.0' departLane='random' departSpeed='10' />
    <vehicle id='N_S_207' type='standard_car' route='N_S' depart='424.0' departLane='random' departSpeed='10' />
    <vehicle id='S_N_208' type='standard_car' route='S_N' depart='424.0' departLane='random' departSpeed='10' />
    <vehicle id='S_E_209' type='standard_car' route='S_E' depart='426.0' departLane='random' departSpeed='10' />
    <vehicle id='N_S_210' type='standard_car' route='N_S' depart='426.0' departLane='random' departSpeed='10' />
    <vehicle id='N_S_211' type='standard_car' route='N_S' depart='426.0' departLane='random' departSpeed='10' />
    <vehicle id='E_N_212' type='standard_car' route='E_N' depart='427.0' departLane='random' departSpeed='10' />
    <vehicle id='E_W_213' type='standard_car' route='E_W' depart='428.0' departLane='random' departSpeed='10' />
    <vehicle id='N_S_214' type='standard_car' route='N_S' depart='428.0' departLane='random' departSpeed='10' />
    <vehicle id='W_E_215' type='standard_car' route='W_E' depart='428.0' departLane='random' departSpeed='10' />
    <vehicle id='W_E_216' type='standard_car' route='W_E' depart='429.0' departLane='random' departSpeed='10' />
    <vehicle id='N_S_217' type='standard_car' route='N_S' depart='431.0' departLane='random' departSpeed='10' />
    <vehicle id='S_E_218' type='standard_car' route='S_E' depart='432.0' departLane='random' departSpeed='10' />
    <vehicle id='S_N_219' type='standard_car' route='S_N' depart='434.0' departLane='random' departSpeed='10' />
    <vehicle id='N_W_220' type='standard_car' route='N_W' depart='438.0' departLane='random' departSpeed='10' />
    <vehicle id='N_S_221' type='standard_car' route='N_S' depart='438.0' departLane='random' departSpeed='10' />
    <vehicle id='W_E_222' type='standard_car' route='W_E' depart='440.0' departLane='random' departSpeed='10' />
    <vehicle id='W_E_223' type='standard_car' route='W_E' depart='440.0' departLane='random' departSpeed='10' />
    <vehicle id='E_W_224' type='standard_car' route='E_W' depart='442.0' departLane='random' departSpeed='10' />
    <vehicle id='E_W_225' type='standard_car' route='E_W' depart='443.0' departLane='random' departSpeed='10' />
    <vehicle id='W_E_226' type='standard_car' route='W_E' depart='443.0' departLane='random' departSpeed='10' />
    <vehicle id='N_S_227' type='standard_car' route='N_S' depart='445.0' departLane='random' departSpeed='10' />
    <vehicle id='S_E_228' type='standard_car' route='S_E' depart='445.0' departLane='random' departSpeed='10' />
    <vehicle id='N_W_229' type='standard_car' route='N_W' depart='445.0' departLane='random' departSpeed='10' />
    <vehicle id='W_S_230' type='standard_car' route='W_S' depart='447.0' departLane='random' departSpeed='10' />
    <vehicle id='E_W_231' type='standard_car' route='E_W' depart='450.0' departLane='random' departSpeed='10' />
    <vehicle id='E_W_232' type='standard_car' route='E_W' depart='450.0' departLane='random' departSpeed='10' />
    <vehicle id='N_S_233' type='standard_car' route='N_S' depart='451.0' departLane='random' departSpeed='10' />
    <vehicle id='W_S_234' type='standard_car' route='W_S' depart='452.0' departLane='random' departSpeed='10' />
    <vehicle id='E_W_235' type='standard_car' route='E_W' depart='452.0' departLane='random' departSpeed='10' />
    <vehicle id='S_E_236' type='standard_car' route='S_E' depart='453.0' departLane='random' departSpeed='10' />
    <vehicle id='W_E_237' type='standard_car' route='W_E' depart='454.0' departLane='random' departSpeed='10' />
    <vehicle id='S_N_238' type='standard_car' route='S_N' depart='454.0' departLane='random' departSpeed='10' />
    <vehicle id='S_E_239' type='standard_car' route='S_E' depart='455.0' departLane='random' departSpeed='10' />
    <vehicle id='S_E_240' type='standard_car' route='S_E' depart='456.0' departLane='random' departSpeed='10' />
    <vehicle id='N_W_241' type='standard_car' route='N_W' depart='458.0' departLane='random' departSpeed='10' />
    <vehicle id='E_W_242' type='standard_car' route='E_W' depart='459.0' departLane='random' departSpeed='10' />
    <vehicle id='S_N_243' type='standard_car' route='S_N' depart='459.0' departLane='random' departSpeed='10' />
    <vehicle id='W_E_244' type='standard_car' route='W_E' depart='461.0' departLane='random' departSpeed='10' />
    <vehicle id='N_W_245' type='standard_car' route='N_W' depart='463.0' departLane='random' departSpeed='10' />
    <vehicle id='S_N_246' type='standard_car' route='S_N' depart='463.0' departLane='random' departSpeed='10' />
    <vehicle id='E_W_247' type='standard_car' route='E_W' depart='463.0' departLane='random' departSpeed='10' />
    <vehicle id='S_E_248' type='standard_car' route='S_E' depart='463.0' departLane='random' departSpeed='10' />
    <vehicle id='S_E_249' type='standard_car' route='S_E' depart='464.0' departLane='random' departSpeed='10' />
    <vehicle id='W_S_250' type='standard_car' route='W_S' depart='464.0' departLane='random' departSpeed='10' />
    <vehicle id='E_N_251' type='standard_car' route='E_N' depart='465.0' departLane='random' departSpeed='10' />
    <vehicle id='E_W_252' type='standard_car' route='E_W' depart='465.0' departLane='random' departSpeed='10' />
    <vehicle id='W_E_253' type='standard_car' route='W_E' depart='466.0' departLane='random' departSpeed='10' />
    <vehicle id='W_E_254' type='standard_car' route='W_E' depart='468.0' departLane='random' departSpeed='10' />
    <vehicle id='E_N_255' type='standard_car' route='E_N' depart='468.0' departLane='random' departSpeed='10' />
    <vehicle id='W_S_256' type='standard_car' route='W_S' depart='469.0' departLane='random' departSpeed='10' />
    <vehicle id='N_W_257' type='standard_car' route='N_W' depart='469.0' departLane='random' departSpeed='10' />
    <vehicle id='S_N_258' type='standard_car' route='S_N' depart='469.0' departLane='random' departSpeed='10' />