<routes>
    <vType id="standard_car" length="5.0" maxSpeed="11.11" minGap="2.5" accel="2.0" decel="4.5" />
    <route id="N_S" edges="road_1_2_3 road_1_1_3"/>
    <route id="N_E" edges="road_1_2_3 road_1_1_0"/>
    <route id="N_W" edges="road_1_2_3 road_1_1_2"/>
    <route id="S_W" edges="road_1_0_1 road_1_1_2"/>
    <route id="S_E" edges="road_1_0_1 road_1_1_0"/>
    <route id="S_N" edges="road_1_0_1 road_1_1_1"/>

    <route id="W_E" edges="road_0_1_0 road_1_1_0"/>
    <route id="W_N" edges="road_0_1_0 road_1_1_1"/>
    <route id="W_S" edges="road_0_1_0 road_1_1_3"/>
    <route id="E_N" edges="road_2_1_2 road_1_1_1"/>
    <route id="E_S" edges="road_2_1_2 road_1_1_3"/>
    <route id="E_W" edges="road_2_1_2 road_1_1_2"/>
            
    <vehicle id='S_N_0' type='standard_car' route='S_N' depart='16.0' departLane='random' departSpeed='10' />
    <vehicle id='S_E_1' type='standard_car' route='S_E' depart='51.0' departLane='random' departSpeed='10' />
    <vehicle id='E_W_2' type='standard_car' route='E_W' depart='53.0' departLane='random' departSpeed='10' />
    <vehicle id='S_N_3' type='standard_car' route='S_N' depart='62.0' departLane='random' departSpeed='10' />
    <vehicle id='N_S_4' type='standard_car' route='N_S' depart='73.0' departLane='random' departSpeed='10' />
    <vehicle id='N_W_5' type='standard_car' route='N_W' depart='78.0' departLane='random' departSpeed='10' />
    <vehicle id='N_S_6' type='standard_car' route='N_S' depart='83.0' departLane='random' departSpeed='10' />
    <vehicle id='E_N_7' type='standard_car' route='E_N' depart='87.0' departLane='random' departSpeed='10' />
    <vehicle id='W_S_8' type='standard_car' route='W_S' depart='88.0' departLane='random' departSpeed='10' />
    <vehicle id='E_N_9' type='standard_car' route='E_N' depart='90.0' departLane='random' departSpeed='10' />
    <vehicle id='S_N_10' type='standard_car' route='S_N' depart='92.0' departLane='random' departSpeed='10' />
    <vehicle id='E_W_11' type='standard_car' route='E_W' depart='102.0' departLane='random' departSpeed='10' />
    <vehicle id='E_W_12' type='standard_car' route='E_W' depart='102.0' departLane='random' departSpeed='10' />
    <vehicle id='W_E_13' type='standard_car' route='W_E' depart='106.0' departLane='random' departSpeed='10' />
    <vehicle id='E_W_14' type='standard_car' route='E_W' depart='107.0' departLane='random' departSpeed='10' />
    <vehicle id='E_W_15' type='standard_car' route='E_W' depart='117.0' departLane='random' departSpeed='10' />
    <vehicle id='N_S_16' type='standard_car' route='N_S' depart='126.0' departLane='random' departSpeed='10' />
    <vehicle id='W_S_17' type='standard_car' route='W_S' depart='129.0' departLane='random' departSpeed='10' />
    <vehicle id='E_W_18' type='standard_car' route='E_W' depart='130.0' departLane='random' departSpeed='10' />
    <vehicle id='S_N_19' type='standard_car' route='S_N' depart='132.0' departLane='random' departSpeed='10' />
    <vehicle id='S_N_20' type='standard_car' route='S_N' depart='136.0' departLane='random' departSpeed='10' />
    <vehicle id='W_S_21' type='standard_car' route='W_S' depart='137.0' departLane='random' departSpeed='10' />
    <vehicle id='E_W_22' type='standard_car' route='E_W' depart='143.0' departLane='random' departSpeed='10' />
    <vehicle id='E_W_23' type='standard_car' route='E_W' depart='146.0' departLane='random' departSpeed='10' />
    <vehicle id='E_N_24' type='standard_car' route='E_N' depart='147.0' departLane='random' departSpeed='10' />
    <vehicle id='E_W_25' type='standard_car' route='E_W' depart='159.0' departLane='random' departSpeed='10' />
    <vehicle id='E_N_26' type='standard_car' route='E_N' depart='162.0' departLane='random' departSpeed='10' />
    <vehicle id='S_N_27' type='standard_car' route='S_N' depart='166.0' departLane='random' departSpeed='10' />
    <vehicle id='S_N_28' type='standard_car' route='S_N' depart='168.0' departLane='random' departSpeed='10' />
    <vehicle id='S_N_29' type='standard_car' route='S_N' depart='168.0' departLane='random' departSpeed='10' />
    <vehicle id='W_E_30' type='standard_car' route='W_E' depart='169.0' departLane='random' departSpeed='10' />
    <vehicle id='S_N_31' type='standard_car' route='S_N' depart='172.0' departLane='random' departSpeed='10' />
    <vehicle id='E_W_32' type='standard_car' route='E_W' depart='173.0' departLane='random' departSpeed='10' />
    <vehicle id='E_N_33' type='standard_car' route='E_N' depart='176.0' departLane='random' departSpeed='10' />
    <vehicle id='W_S_34' type='standard_car' route='W_S' depart='179.0' departLane='random' departSpeed='10' />
    <vehicle id='N_S_35' type='standard_car' route='N_S' depart='182.0' departLane='random' departSpeed='10' />
    <vehicle id='W_E_36' type='standard_car' route='W_E' depart='185.0' departLane='random' departSpeed='10' />
    <vehicle id='E_N_37' type='standard_car' route='E_N' depart='201.0' departLane='random' departSpeed='10' />
    <vehicle id='S_E_38' type='standard_car' route='S_E' depart='201.0' departLane='random' departSpeed='10' />
    <vehicle id='E_W_39' type='standard_car' route='E_W' depart='204.0' departLane='random' departSpeed='10' />
    <vehicle id='E_N_40' type='standard_car' route='E_N' depart='207.0' departLane='random' departSpeed='10' />
    <vehicle id='N_W_41' type='standard_car' route='N_W' depart='207.0' departLane='random' departSpeed='10' />
    <vehicle id='N_W_42' type='standard_car' route='N_W' depart='208.0' departLane='random' departSpeed='10' />
    <vehicle id='N_W_43' type='standard_car' route='N_W' depart='212.0' departLane='random' departSpeed='10' />
    <vehicle id='E_W_44' type='standard_car' route='E_W' depart='213.0' departLane='random' departSpeed='10' />
    <vehicle id='S_N_45' type='standard_car' route='S_N' depart='213.0' departLane='random' departSpeed='10' />
    <vehicle id='W_E_46' type='standard_car' route='W_E' depart='214.0' departLane='random' departSpeed='10' />
    <vehicle id='S_N_47' type='standard_car' route='S_N' depart='215.0' departLane='random' departSpeed='10' />
    <vehicle id='E_W_48' type='standard_car' route='E_W' depart='216.0' departLane='random' departSpeed='10' />
    <vehicle id='E_N_49' type='standard_car' route='E_N' depart='217.0' departLane='random' departSpeed='10' />
    <vehicle id='N_S_50' type='standard_car' route='N_S' depart='218.0' departLane='random' departSpeed='10' />
    <vehicle id='S_N_51' type='standard_car' route='S_N' depart='221.0' departLane='random' departSpeed='10' />
    <vehicle id='S_E_52' type='standard_car' route='S_E' depart='225.0' departLane='random' departSpeed='10' />
    <vehicle id='S_N_53' type='standard_car' route='S_N' depart='225.0' departLane='random' departSpeed='10' />
    <vehicle id='W_E_54' type='standard_car' route='W_E' depart='227.0' departLane='random' departSpeed='10' />
    <vehicle id='S_N_55' type='standard_car' route='S_N' depart='228.0' departLane='random' departSpeed='10' />
    <vehicle id='W_S_56' type='standard_car' route='W_S' depart='231.0' departLane='random' departSpeed='10' />
    <vehicle id='W_E_57' type='standard_car' route='W_E' depart='232.0' departLane='random' departSpeed='10' />
    <vehicle id='S_N_58' type='standard_car' route='S_N' depart='233.0' departLane='random' departSpeed='10' />
    <vehicle id='S_N_59' type='standard_car' route='S_N' depart='234.0' departLane='random' departSpeed='10' />
    <vehicle id='W_S_60' type='standard_car' route='W_S' depart='236.0' departLane='random' departSpeed='10' />
    <vehicle id='E_N_61' type='standard_car' route='E_N' depart='237.0' departLane='random' departSpeed='10' />
    <vehicle id='S_E_62' type='standard_car' route='S_E' depart='238.0' departLane='random' departSpeed='10' />
    <vehicle id='E_W_63' type='standard_car' route='E_W' depart='241.0' departLane='random' departSpeed='10' />
    <vehicle id='N_S_64' type='standard_car' route='N_S' depart='242.0' departLane='random' departSpeed='10' />
    <vehicle id='S_E_65' type='standard_car' route='S_E' depart='243.0' departLane='random' departSpeed='10' />
    <vehicle id='N_W_66' type='standard_car' route='N_W' depart='244.0' departLane='random' departSpeed='10' />
    <vehicle id='S_E_67' type='standard_car' route='S_E' depart='245.0' departLane='random' departSpeed='10' />
    <vehicle id='S_N_68' type='standard_car' route='S_N' depart='250.0' departLane='random' departSpeed='10' />
    <vehicle id='N_S_69' type='standard_car' route='N_S' depart='251.0' departLane='random' departSpeed='10' />
    <vehicle id='W_E_70' type='standard_car' route='W_E' depart='252.0' departLane='random' departSpeed='10' />
    <vehicle id='E_W_71' type='standard_car' route='E_W' depart='252.0' departLane='random' departSpeed='10' />
    <vehicle id='S_E_72' type='standard_car' route='S_E' depart='252.0' departLane='random' departSpeed='10' />
    <vehicle id='W_S_73' type='standard_car' route='W_S' depart='256.0' departLane='random' departSpeed='10' />
    <vehicle id='W_S_74' type='standard_car' route='W_S' depart='257.0' departLane='random' departSpeed='10' />
    <vehicle id='E_W_75' type='standard_car' route='E_W' depart='258.0' departLane='random' departSpeed='10' />
    <vehicle id='N_W_76' type='standard_car' route='N_W' depart='264.0' departLane='random' departSpeed='10' />
    <vehicle id='W_S_77' type='standard_car' route='W_S' depart='267.0' departLane='random' departSpeed='10' />
    <vehicle id='N_W_78' type='standard_car' route='N_W' depart='267.0' departLane='random' departSpeed='10' />
    <vehicle id='S_N_79' type='standard_car' route='S_N' depart='267.0' departLane='random' departSpeed='10' />
    <vehicle id='N_W_80' type='standard_car' route='N_W' depart='268.0' departLane='random' departSpeed='10' />
    <vehicle id='E_W_81' type='standard_car' route='E_W' depart='268.0' departLane='random' departSpeed='10' />
    <vehicle id='W_E_82' type='standard_car' route='W_E' depart='270.0' departLane='random' departSpeed='10' />
    <vehicle id='E_W_83' type='standard_car' route='E_W' depart='270.0' departLane='random' departSpeed='10' />
    <vehicle id='S_N_84' type='standard_car' route='S_N' depart='271.0' departLane='random' departSpeed='10' />
    <vehicle id='S_N_85' type='standard_car' route='S_N' depart='271.0' departLane='random' departSpeed='10' />
    <vehicle id='N_S_86' type='standard_car' route='N_S' depart='277.0' departLane='random' departSpeed='10' />
    <vehicle id='W_E_87' type='standard_car' route='W_E' depart='277.0' departLane='random' departSpeed='10' />
    <vehicle id='S_E_88' type='standard_car' route='S_E' depart='278.0' departLane='random' departSpeed='10' />
    <vehicle id='S_N_89' type='standard_car' route='S_N' depart='279.0' departLane='random' departSpeed='10' />
    <vehicle id='N_W_90' type='standard_car' route='N_W' depart='280.0' departLane='random' departSpeed='10' />
    <vehicle id='E_W_91' type='standard_car' route='E_W' depart='282.0' departLane='random' departSpeed='10' />
    <vehicle id='N_S_92' type='standard_car' route='N_S' depart='282.0' departLane='random' departSpeed='10' />
    <vehicle id='E_N_93' type='standard_car' route='E_N' depart='283.0' departLane='random' departSpeed='10' />
    <vehicle id='E_N_94' type='standard_car' route='E_N' depart='284.0' departLane='random' departSpeed='10' />
    <vehicle id='N_S_95' type='standard_car' route='N_S' depart='286.0' departLane='random' departSpeed='10' />
    <vehicle id='S_N_96' type='standard_car' route='S_N' depart='287.0' departLane='random' departSpeed='10' />
    <vehicle id='N_S_97' type='standard_car' route='N_S' depart='288.0' departLane='random' departSpeed='10' />
    <vehicle id='E_W_98' type='standard_car' route='E_W' depart='289.0' departLane='random' departSpeed='10' />
    <vehicle id='N_S_99' type='standard_car' route='N_S' depart='290.0' departLane='random' departSpeed='10' />
    <vehicle id='N_S_100' type='standard_car' route='N_S' depart='292.0' departLane='random' departSpeed='10' />
    <vehicle id='N_W_101' type='standard_car' route='N_W' depart='292.0' departLane='random' departSpeed='10' />
    <vehicle id='S_N_102' type='standard_car' route='S_N' depart='293.0' departLane='random' departSpeed='10' />
    <vehicle id='N_W_103' type='standard_car' route='N_W' depart='293.0' departLane='random' departSpeed='10' />
    <vehicle id='E_W_104' type='standard_car' route='E_W' depart='293.0' departLane='random' departSpeed='10' />
    <vehicle id='S_N_105' type='standard_car' route='S_N' depart='295.0' departLane='random' departSpeed='10' />
    <vehicle id='S_N_106' type='standard_car' route='S_N' depart='296.0' departLane='random' departSpeed='10' />
    <vehicle id='N_S_107' type='standard_car' route='N_S' depart='297.0' departLane='random' departSpeed='10' />
    <vehicle id='W_S_108' type='standard_car' route='W_S' depart='298.0' departLane='random' departSpeed='10' />
    <vehicle id='W_E_109' type='standard_car' route='W_E' depart='304.0' departLane='random' departSpeed='10' />
    <vehicle id='E_W_110' type='standard_car' route='E_W' depart='306.0' departLane='random' departSpeed='10' />
    <vehicle id='N_S_111' type='standard_car' route='N_S' depart='308.0' departLane='random' departSpeed='10' />
    <vehicle id='E_N_112' type='standard_car' route='E_N' depart='309.0' departLane='random' departSpeed='10' />
    <vehicle id='W_E_113' type='standard_car' route='W_E' depart='311.0' departLane='random' departSpeed='10' />
    <vehicle id='N_S_114' type='standard_car' route='N_S' depart='312.0' departLane='random' departSpeed='10' />
    <vehicle id='W_E_115' type='standard_car' route='W_E' depart='314.0' departLane='random' departSpeed='10' />
    <vehicle id='W_S_116' type='standard_car' route='W_S' depart='314.0' departLane='random' departSpeed='10' />
    <vehicle id='E_W_117' type='standard_car' route='E_W' depart='316.0' departLane='random' departSpeed='10' />
    <vehicle id='S_N_118' type='standard_car' route='S_N' depart='317.0' departLane='random' departSpeed='10' />
    <vehicle id='E_N_119' type='standard_car' route='E_N' depart='318.0' departLane='random' departSpeed='10' />
    <vehicle id='E_N_120' type='standard_car' route='E_N' depart='319.0' departLane='random' departSpeed='10' />
    <vehicle id='W_E_121' type='standard_car' route='W_E' depart='320.0' departLane='random' departSpeed='10' />
    <vehicle id='W_E_122' type='standard_car' route='W_E' depart='321.0' departLane='random' departSpeed='10' />
    <vehicle id='E_W_123' type='standard_car' route='E_W' depart='321.0' departLane='random' departSpeed='10' />
    <vehicle id='W_S_124' type='standard_car' route='W_S' depart='322.0' departLane='random' departSpeed='10' />
    <vehicle id='N_W_125' type='standard_car' route='N_W' depart='322.0' departLane='random' departSpeed='10' />
    <vehicle id='S_N_126' type='standard_car' route='S_N' depart='323.0' departLane='random' departSpeed='10' />
    <vehicle id='E_W_127' type='standard_car' route='E_W' depart='326.0' departLane='random' departSpeed='10' />
    <vehicle id='S_E_128' type='standard_car' route='S_E' depart='327.0' departLane='random' departSpeed='10' />
    <vehicle id='W_S_129' type='standard_car' route='W_S' depart='329.0' departLane='random' departSpeed='10' />
    <vehicle id='S_E_130' type='standard_car' route='S_E' depart='329.0' departLane='random' departSpeed='10' />
    <vehicle id='N_S_131' type='standard_car' route='N_S' depart='331.0' departLane='random' departSpeed='10' />
    <vehicle id='W_E_132' type='standard_car' route='W_E' depart='333.0' departLane='random' departSpeed='10' />
    <vehicle id='S_N_133' type='standard_car' route='S_N' depart='333.0' departLane='random' departSpeed='10' />
    <vehicle id='S_E_134' type='standard_car' route='S_E' depart='335.0' departLane='random' departSpeed='10' />
    <vehicle id='W_S_135' type='standard_car' route='W_S' depart='338.0' departLane='random' departSpeed='10' />
    <vehicle id='S_E_136' type='standard_car' route='S_E' depart='340.0' departLane='random' departSpeed='10' />
    <vehicle id='E_W_137' type='standard_car' route='E_W' depart='340.0' departLane='random' departSpeed='10' />
    <vehicle id='E_W_138' type='standard_car' route='E_W' depart='340.0' departLane='random' departSpeed='10' />
    <vehicle id='E_W_139' type='standard_car' route='E_W' depart='340.0' departLane='random' departSpeed='10' />
    <vehicle id='E_N_140' type='standard_car' route='E_N' depart='341.0' departLane='random' departSpeed='10' />
    <vehicle id='W_S_141' type='standard_car' route='W_S' depart='341.0' departLane='random' departSpeed='10' />
    <vehicle id='W_E_142' type='standard_car' route='W_E' depart='346.0' departLane='random' departSpeed='10' />
    <vehicle id='S_E_143' type='standard_car' route='S_E' depart='349.0' departLane='random' departSpeed='10' />
    <vehicle id='S_N_144' type='standard_car' route='S_N' depart='349.0' departLane='random' departSpeed='10' />
    <vehicle id='W_S_145' type='standard_car' route='W_S' depart='351.0' departLane='random' departSpeed='10' />
    <vehicle id='N_S_146' type='standard_car' route='N_S' depart='355.0' departLane='random' departSpeed='10' />
    <vehicle id='N_S_147' type='standard_car' route='N_S' depart='356.0' departLane='random' departSpeed='10' />
    <vehicle id='W_E_148' type='standard_car' route='W_E' depart='357.0' departLane='random' departSpeed='10' />
    <vehicle id='N_S_149' type='standard_car' route='N_S' depart='358.0' departLane='random' departSpeed='10' />
    <vehicle id='E_N_150' type='standard_car' route='E_N' depart='359.0' departLane='random' departSpeed='10' />
    <vehicle id='E_W_151' type='standard_car' route='E_W' depart='360.0' departLane='random' departSpeed='10' />
    <vehicle id='S_N_152' type='standard_car' route='S_N' depart='361.0' departLane='random' departSpeed='10' />
    <vehicle id='N_S_153' type='standard_car' route='N_S' depart='361.0' departLane='random' departSpeed='10' />
    <vehicle id='E_W_154' type='standard_car' route='E_W' depart='361.0' departLane='random' departSpeed='10' />
    <vehicle id='E_N_155' type='standard_car' route='E_N' depart='364.0' departLane='random' departSpeed='10' />
    <vehicle id='E_N_156' type='standard_car' route='E_N' depart='366.0' departLane='random' departSpeed='10' />
    <vehicle id='E_W_157' type='standard_car' route='E_W' depart='366.0' departLane='random' departSpeed='10' />
    <vehicle id='S_E_158' type='standard_car' route='S_E' depart='368.0' departLane='random' departSpeed='10' />
    <vehicle id='W_E_159' type='standard_car' route='W_E' depart='369.0' departLane='random' departSpeed='10' />
    <vehicle id='N_W_160' type='standard_car' route='N_W' depart='372.0' departLane='random' departSpeed='10' />
    <vehicle id='N_W_161' type='standard_car' route='N_W' depart='373.0' departLane='random' departSpeed='10' />
    <vehicle id='N_S_162' type='standard_car' route='N_S' depart='376.0' departLane='random' departSpeed='10' />
    <vehicle id='S_E_163' type='standard_car' route='S_E' depart='377.0' departLane='random' departSpeed='10' />
    <vehicle id='S_N_164' type='standard_car' route='S_N' depart='378.0' departLane='random' departSpeed='10' />
    <vehicle id='W_E_165' type='standard_car' route='W_E' depart='381.0' departLane='random' departSpeed='10' />
    <vehicle id='S_N_166' type='standard_car' route='S_N' depart='382.0' departLane='random' departSpeed='10' />
    <vehicle id='S_N_167' type='standard_car' route='S_N' depart='383.0' departLane='random' departSpeed='10' />
    <vehicle id='S_N_168' type='standard_car' route='S_N' depart='386.0' departLane='random' departSpeed='10' />
    <vehicle id='N_S_169' type='standard_car' route='N_S' depart='386.0' departLane='random' departSpeed='10' />
    <vehicle id='N_S_170' type='standard_car' route='N_S' depart='386.0' departLane='random' departSpeed='10' />
    <vehicle id='S_E_171' type='standard_car' route='S_E' depart='387.0' departLane='random' departSpeed='10' />
    <vehicle id='N_S_172' type='standard_car' route='N_S' depart='390.0' departLane='random' departSpeed='10' />
    <vehicle id='W_S_173' type='standard_car' route='W_S' depart='395.0' departLane='random' departSpeed='10' />
    <vehicle id='E_N_174' type='standard_car' route='E_N' depart='395.0' departLane='random' departSpeed='10' />
    <vehicle id='W_E_175' type='standard_car' route='W_E' depart='396.0' departLane='random' departSpeed='10' />
    <vehicle id='W_E_176' type='standard_car' route='W_E' depart='397.0' departLane='random' departSpeed='10' />
    <vehicle id='N_W_177' type='standard_car' route='N_W' depart='399.0' departLane='random' departSpeed='10' />
    <vehicle id='N_W_178' type='standard_car' route='N_W' depart='400.0' departLane='random' departSpeed='10' />
    <vehicle id='S_N_179' type='standard_car' route='S_N' depart='403.0' departLane='random' departSpeed='10' />
    <vehicle id='W_E_180' type='standard_car' route='W_E' depart='405.0' departLane='random' departSpeed='10' />
    <vehicle id='S_N_181' type='standard_car' route='S_N' depart='406.0' departLane='random' departSpeed='10' />
    <vehicle id='N_W_182' type='standard_car' route='N_W' depart='406.0' departLane='random' departSpeed='10' />
    <vehicle id='N_W_183' type='standard_car' route='N_W' depart='408.0' departLane='random' departSpeed='10' />
    <vehicle id='S_E_184' type='standard_car' route='S_E' depart='410.0' departLane='random' departSpeed='10' />
    <vehicle id='E_N_185' type='standard_car' route='E_N' depart='410.0' departLane='random' departSpeed='10' />
    <vehicle id='N_S_186' type='standard_car' route='N_S' depart='411.0' departLane='random' departSpeed='10' />
    <vehicle id='N_W_187' type='standard_car' route='N_W' depart='412.0' departLane='random' departSpeed='10' />
    <vehicle id='E_N_188' type='standard_car' route='E_N' depart='412.0' departLane='random' departSpeed='10' />
    <vehicle id='N_S_189' type='standard_car' route='N_S' depart='415.0' departLane='random' departSpeed='10' />
    <vehicle id='N_W_190' type='standard_car' route='N_W' depart='416.0' departLane='random' departSpeed='10' />
    <vehicle id='E_N_191' type='standard_car' route='E_N' depart='417.0' departLane='random' departSpeed='10' />
    <vehicle id='N_S_192' type='standard_car' route='N_S' depart='418.0' departLane='random' departSpeed='10' />
    <vehicle id='W_E_193' type='standard_car' route='W_E' depart='419.0' departLane='random' departSpeed='10' />
    <vehicle id='N_W_194' type='standard_car' route='N_W' depart='419.0' departLane='random' departSpeed='10' />
    <vehicle id='E_N_195' type='standard_car' route='E_N' depart='420.0' departLane='random' departSpeed='10' />
    <vehicle id='E_W_196' type='standard_car' route='E_W' depart='422.0' departLane='random' departSpeed='10' />
    <vehicle id='W_E_197' type='standard_car' route='W_E' depart='423.0' departLane='random' departSpeed='10' />
    <vehicle id='S_E_198' type='standard_car' route='S_E' depart='423.0' departLane='random' departSpeed='10' />
    <vehicle id='S_N_199' type='standard_car' route='S_N' depart='424.0' departLane='random' departSpeed='10' />
    <vehicle id='W_E_200' type='standard_car' route='W_E' depart='425.0' departLane='random' departSpeed='10' />
    <vehicle id='S_N_201' type='standard_car' route='S_N' depart='427.0' departLane='random' departSpeed='10' />
    <vehicle id='E_W_202' type='standard_car' route='E_W' depart='427.0' departLane='random' departSpeed='10' />
    <vehicle id='W_E_203' type='standard_car' route='W_E' depart='428.0' departLane='random' departSpeed='10' />
    <vehicle id='W_E_204' type='standard_car' route='W_E' depart='429.0' departLane='random' departSpeed='10' />
    <vehicle id='S_N_205' type='standard_car' route='S_N' depart='429.0' departLane='random' departSpeed='10' />
    <vehicle id='N_S_206' type='standard_car' route='N_S' depart='430.0' departLane='random' departSpeed='10' />
    <vehicle id='W_E_207' type='standard_car' route='W_E' depart='430.0' departLane='random' departSpeed='10' />
    <vehicle id='S_N_208' type='standard_car' route='S_N' depart='430.0' departLane='random' departSpeed='10' />
    <vehicle id='N_S_209' type='standard_car' route='N_S' depart='431.0' departLane='random' departSpeed='10' />
    <vehicle id='W_E_210' type='standard_car' route='W_E' depart='431.0' departLane='random' departSpeed='10' />
    <vehicle id='E_W_211' type='standard_car' route='E_W' depart='433.0' departLane='random' departSpeed='10' />
    <vehicle id='N_W_212' type='standard_car' route='N_W' depart='433.0' departLane='random' departSpeed='10' />
    <vehicle id='W_S_213' type='standard_car' route='W_S' depart='436.0' departLane='random' departSpeed='10' />
    <vehicle id='E_W_214' type='standard_car' route='E_W' depart='437.0' departLane='random' departSpeed='10' />
    <vehicle id='W_E_215' type='standard_car' route='W_E' depart='437.0' departLane='random' departSpeed='10' />
    <vehicle id='S_N_216' type='standard_car' route='S_N' depart='438.0' departLane='random' departSpeed='10' />
    <vehicle id='W_E_217' type='standard_car' route='W_E' depart='438.0' departLane='random' departSpeed='10' />
    <vehicle id='N_S_218' type='standard_car' route='N_S' depart='438.0' departLane='random' departSpeed='10' />
    <vehicle id='W_E_219' type='standard_car' route='W_E' depart='438.0' departLane='random' departSpeed='10' />
    <vehicle id='E_W_220' type='standard_car' route='E_W' depart='439.0' departLane='random' departSpeed='10' />
    <vehicle id='N_S_221' type='standard_car' route='N_S' depart='440.0' departLane='random' departSpeed='10' />
    <vehicle id='E_W_222' type='standard_car' route='E_W' depart='440.0' departLane='random' departSpeed='10' />
    <vehicle id='S_N_223' type='standard_car' route='S_N' depart='441.0' departLane='random' departSpeed='10' />
    <vehicle id='N_S_224' type='standard_car' route='N_S' depart='441.0' departLane='random' departSpeed='10' />
    <vehicle id='W_E_225' type='standard_car' route='W_E' depart='441.0' departLane='random' departSpeed='10' />
    <vehicle id='W_E_226' type='standard_car' route='W_E' depart='442.0' departLane='random' departSpeed='10' />
    <vehicle id='E_W_227' type='standard_car' route='E_W' depart='443.0' departLane='random' departSpeed='10' />
    <vehicle id='S_E_228' type='standard_car' route='S_E' depart='444.0' departLane='random' departSpeed='10' />
    <vehicle id='N_W_229' type='standard_car' route='N_W' depart='445.0' departLane='random' departSpeed='10' />
    <vehicle id='W_E_230' type='standard_car' route='W_E' depart='445.0' departLane='random' departSpeed='10' />
    <vehicle id='N_S_231' type='standard_car' route='N_S' depart='445.0' departLane='random' departSpeed='10' />
    <vehicle id='E_N_232' type='standard_car' route='E_N' depart='447.0' departLane='random' departSpeed='10' />
    <vehicle id='E_N_233' type='standard_car' route='E_N' depart='447.0' departLane='random' departSpeed='10' />
    <vehicle id='E_W_234' type='standard_car' route='E_W' depart='447.0' departLane='random' departSpeed='10' />
    <vehicle id='W_E_235' type='standard_car' route='W_E' depart='448.0' departLane='random' departSpeed='10' />
    <vehicle id='S_N_236' type='standard_car' route='S_N' depart='448.0' departLane='random' departSpeed='10' />
    <vehicle id='E_W_237' type='standard_car' route='E_W' depart='448.0' departLane='random' departSpeed='10' />
    <vehicle id='S_N_238' type='standard_car' route='S_N' depart='448.0' departLane='random' departSpeed='10' />
    <vehicle id='N_S_239' type='standard_car' route='N_S' depart='449.0' departLane='random' departSpeed='10' />
    <vehicle id='E_N_240' type='standard_car' route='E_N' depart='449.0' departLane='random' departSpeed='10' />
    <vehicle id='S_E_241' type='standard_car' route='S_E' depart='449.0' departLane='random' departSpeed='10' />
    <vehicle id='E_N_242' type='standard_car' route='E_N' depart='450.0' departLane='random' departSpeed='10' />
    <vehicle id='E_W_243' type='standard_car' route='E_W' depart='451.0' departLane='random' departSpeed='10' />
    <vehicle id='S_E_244' type='standard_car' route='S_E' depart='452.0' departLane='random' departSpeed='10' />
    <vehicle id='S_N_245' type='standard_car' route='S_N' depart='452.0' departLane='random' departSpeed='10' />
    <vehicle id='W_E_246' type='standard_car' route='W_E' depart='452.0' departLane='random' departSpeed='10' />
    <vehicle id='W_E_247' type='standard_car' route='W_E' depart='453.0' departLane='random' departSpeed='10' />
    <vehicle id='N_S_248' type='standard_car' route='N_S' depart='454.0' departLane='random' departSpeed='10' />
    <vehicle id='S_E_249' type='standard_car' route='S_E' depart='454.0' departLane='random' departSpeed='10' />
    <vehicle id='E_W_250' type='standard_car' route='E_W' depart='455.0' departLane='random' departSpeed='10' />
    <vehicle id='E_W_251' type='standard_car' route='E_W' depart='458.0' departLane='random' departSpeed='10' />
    <vehicle id='N_W_252' type='standard_car' route='N_W' depart='458.0' departLane='random' departSpeed='10' />
    <vehicle id='S_E_253' type='standard_car' route='S_E' depart='459.0' departLane='random' departSpeed='10' />
    <vehicle id='S_N_254' type='standard_car' route='S_N' depart='459.0' departLane='random' departSpeed='10' />
    <vehicle id='E_N_255' type='standard_car' route='E_N' depart='459.0' departLane='random' departSpeed='10' />
    <vehicle id='E_W_256' type='standard_car' route='E_W' depart='460.0' departLane='random' departSpeed='10' />
    <vehicle id='E_W_257' type='standard_car' route='E_W' depart='460.0' departLane='random' departSpeed='10' />
    <vehicle id='S_E_258' type='standard_car' route='S_E' depart='462.0' departLane='random' departSpeed='10' />