<routes>
            <vType id="standard_car" length="3.0" maxSpeed="15" minGap="1.0" accel="1.0" decel="4.0" />
            <route id="N_S" edges="gneE5 gneE1 -gneE3 -gneE7"/>
            <route id="N_E" edges="gneE5 gneE1 -gneE0 -gneE4 "/>
            <route id="N_W" edges="gneE5 gneE1 -gneE2 -gneE6"/>
            <route id="S_W" edges="gneE7 gneE3 -gneE2 -gneE6"/>
            <route id="S_E" edges="gneE7 gneE3 -gneE0 -gneE4 "/>
            <route id="S_N" edges="gneE7 gneE3 -gneE1 -gneE5 "/>

            <route id="W_E" edges="gneE6 gneE2 -gneE0 -gneE4 "/>
            <route id="W_N" edges="gneE6 gneE2 -gneE1 -gneE5 "/>
            <route id="W_S" edges="gneE6 gneE2 -gneE3 -gneE7 "/>
            <route id="E_N" edges="gneE4 gneE0 -gneE1 -gneE5 "/>
            <route id="E_S" edges="gneE4 gneE0 -gneE3 -gneE7"/>
            <route id="E_W" edges="gneE4 gneE0 -gneE2 -gneE6 "/>
            
    <vehicle id='W_E_0' type='standard_car' route='W_E' depart='31.0' departLane='random' departSpeed='10' />
    <vehicle id='S_E_1' type='standard_car' route='S_E' depart='34.0' departLane='random' departSpeed='10' />
    <vehicle id='W_S_2' type='standard_car' route='W_S' depart='48.0' departLane='random' departSpeed='10' />
    <vehicle id='W_S_3' type='standard_car' route='W_S' depart='68.0' departLane='random' departSpeed='10' />
    <vehicle id='W_S_4' type='standard_car' route='W_S' depart='68.0' departLane='random' departSpeed='10' />
    <vehicle id='E_N_5' type='standard_car' route='E_N' depart='77.0' departLane='random' departSpeed='10' />
    <vehicle id='S_E_6' type='standard_car' route='S_E' depart='90.0' departLane='random' departSpeed='10' />
    <vehicle id='W_S_7' type='standard_car' route='W_S' depart='104.0' departLane='random' departSpeed='10' />
    <vehicle id='W_S_8' type='standard_car' route='W_S' depart='109.0' departLane='random' departSpeed='10' />
    <vehicle id='S_E_9' type='standard_car' route='S_E' depart='110.0' departLane='random' departSpeed='10' />
    <vehicle id='N_W_10' type='standard_car' route='N_W' depart='117.0' departLane='random' departSpeed='10' />
    <vehicle id='N_S_11' type='standard_car' route='N_S' depart='120.0' departLane='random' departSpeed='10' />
    <vehicle id='S_E_12' type='standard_car' route='S_E' depart='128.0' departLane='random' departSpeed='10' />
    <vehicle id='W_E_13' type='standard_car' route='W_E' depart='132.0' departLane='random' departSpeed='10' />
    <vehicle id='N_W_14' type='standard_car' route='N_W' depart='133.0' departLane='random' departSpeed='10' />
    <vehicle id='S_N_15' type='standard_car' route='S_N' depart='160.0' departLane='random' departSpeed='10' />
    <vehicle id='S_E_16' type='standard_car' route='S_E' depart='164.0' departLane='random' departSpeed='10' />
    <vehicle id='E_N_17' type='standard_car' route='E_N' depart='168.0' departLane='random' departSpeed='10' />
    <vehicle id='N_S_18' type='standard_car' route='N_S' depart='169.0' departLane='random' departSpeed='10' />
    <vehicle id='S_E_19' type='standard_car' route='S_E' depart='173.0' departLane='random' departSpeed='10' />
    <vehicle id='N_W_20' type='standard_car' route='N_W' depart='176.0' departLane='random' departSpeed='10' />
    <vehicle id='S_N_21' type='standard_car' route='S_N' depart='190.0' departLane='random' departSpeed='10' />
    <vehicle id='N_W_22' type='standard_car' route='N_W' depart='192.0' departLane='random' departSpeed='10' />
    <vehicle id='W_S_23' type='standard_car' route='W_S' depart='196.0' departLane='random' departSpeed='10' />
    <vehicle id='N_W_24' type='standard_car' route='N_W' depart='199.0' departLane='random' departSpeed='10' />
    <vehicle id='W_S_25' type='standard_car' route='W_S' depart='209.0' departLane='random' departSpeed='10' />
    <vehicle id='S_N_26' type='standard_car' route='S_N' depart='216.0' departLane='random' departSpeed='10' />
    <vehicle id='W_S_27' type='standard_car' route='W_S' depart='217.0' departLane='random' departSpeed='10' />
    <vehicle id='S_N_28' type='standard_car' route='S_N' depart='219.0' departLane='random' departSpeed='10' />
    <vehicle id='E_N_29' type='standard_car' route='E_N' depart='219.0' departLane='random' departSpeed='10' />
    <vehicle id='E_W_30' type='standard_car' route='E_W' depart='220.0' departLane='random' departSpeed='10' />
    <vehicle id='N_W_31' type='standard_car' route='N_W' depart='220.0' departLane='random' departSpeed='10' />
    <vehicle id='N_W_32' type='standard_car' route='N_W' depart='221.0' departLane='random' departSpeed='10' />
    <vehicle id='E_W_33' type='standard_car' route='E_W' depart='223.0' departLane='random' departSpeed='10' />
    <vehicle id='S_E_34' type='standard_car' route='S_E' depart='232.0' departLane='random' departSpeed='10' />
    <vehicle id='S_N_35' type='standard_car' route='S_N' depart='241.0' departLane='random' departSpeed='10' />
    <vehicle id='S_E_36' type='standard_car' route='S_E' depart='242.0' departLane='random' departSpeed='10' />
    <vehicle id='N_W_37' type='standard_car' route='N_W' depart='243.0' departLane='random' departSpeed='10' />
    <vehicle id='N_W_38' type='standard_car' route='N_W' depart='243.0' departLane='random' departSpeed='10' />
    <vehicle id='E_W_39' type='standard_car' route='E_W' depart='249.0' departLane='random' departSpeed='10' />
    <vehicle id='S_N_40' type='standard_car' route='S_N' depart='256.0' departLane='random' departSpeed='10' />
    <vehicle id='S_E_41' type='standard_car' route='S_E' depart='257.0' departLane='random' departSpeed='10' />
    <vehicle id='N_W_42' type='standard_car' route='N_W' depart='260.0' departLane='random' departSpeed='10' />
    <vehicle id='W_S_43' type='standard_car' route='W_S' depart='264.0' departLane='random' departSpeed='10' />
    <vehicle id='W_E_44' type='standard_car' route='W_E' depart='264.0' departLane='random' departSpeed='10' />
    <vehicle id='S_E_45' type='standard_car' route='S_E' depart='267.0' departLane='random' departSpeed='10' />
    <vehicle id='N_S_46' type='standard_car' route='N_S' depart='269.0' departLane='random' departSpeed='10' />
    <vehicle id='S_N_47' type='standard_car' route='S_N' depart='274.0' departLane='random' departSpeed='10' />
    <vehicle id='N_W_48' type='standard_car' route='N_W' depart='282.0' departLane='random' departSpeed='10' />
    <vehicle id='E_W_49' type='standard_car' route='E_W' depart='287.0' departLane='random' departSpeed='10' />
    <vehicle id='E_N_50' type='standard_car' route='E_N' depart='288.0' departLane='random' departSpeed='10' />
    <vehicle id='E_W_51' type='standard_car' route='E_W' depart='291.0' departLane='random' departSpeed='10' />
    <vehicle id='S_E_52' type='standard_car' route='S_E' depart='291.0' departLane='random' departSpeed='10' />
    <vehicle id='N_W_53' type='standard_car' route='N_W' depart='292.0' departLane='random' departSpeed='10' />
    <vehicle id='W_E_54' type='standard_car' route='W_E' depart='294.0' departLane='random' departSpeed='10' />
    <vehicle id='W_E_55' type='standard_car' route='W_E' depart='300.0' departLane='random' departSpeed='10' />
    <vehicle id='N_W_56' type='standard_car' route='N_W' depart='303.0' departLane='random' departSpeed='10' />
    <vehicle id='S_N_57' type='standard_car' route='S_N' depart='306.0' departLane='random' departSpeed='10' />
    <vehicle id='E_N_58' type='standard_car' route='E_N' depart='306.0' departLane='random' departSpeed='10' />
    <vehicle id='E_N_59' type='standard_car' route='E_N' depart='310.0' departLane='random' departSpeed='10' />
    <vehicle id='W_S_60' type='standard_car' route='W_S' depart='312.0' departLane='random' departSpeed='10' />
    <vehicle id='S_E_61' type='standard_car' route='S_E' depart='319.0' departLane='random' departSpeed='10' />
    <vehicle id='W_E_62' type='standard_car' route='W_E' depart='320.0' departLane='random' departSpeed='10' />
    <vehicle id='E_W_63' type='standard_car' route='E_W' depart='333.0' departLane='random' departSpeed='10' />
    <vehicle id='N_W_64' type='standard_car' route='N_W' depart='334.0' departLane='random' departSpeed='10' />
    <vehicle id='W_E_65' type='standard_car' route='W_E' depart='335.0' departLane='random' departSpeed='10' />
    <vehicle id='E_N_66' type='standard_car' route='E_N' depart='337.0' departLane='random' departSpeed='10' />
    <vehicle id='N_W_67' type='standard_car' route='N_W' depart='342.0' departLane='random' departSpeed='10' />
    <vehicle id='S_N_68' type='standard_car' route='S_N' depart='344.0' departLane='random' departSpeed='10' />
    <vehicle id='W_E_69' type='standard_car' route='W_E' depart='345.0' departLane='random' departSpeed='10' />
    <vehicle id='N_S_70' type='standard_car' route='N_S' depart='345.0' departLane='random' departSpeed='10' />
    <vehicle id='E_W_71' type='standard_car' route='E_W' depart='346.0' departLane='random' departSpeed='10' />
    <vehicle id='W_E_72' type='standard_car' route='W_E' depart='348.0' departLane='random' departSpeed='10' />
    <vehicle id='S_E_73' type='standard_car' route='S_E' depart='352.0' departLane='random' departSpeed='10' />
    <vehicle id='N_S_74' type='standard_car' route='N_S' depart='353.0' departLane='random' departSpeed='10' />
    <vehicle id='W_E_75' type='standard_car' route='W_E' depart='354.0' departLane='random' departSpeed='10' />
    <vehicle id='W_E_76' type='standard_car' route='W_E' depart='354.0' departLane='random' departSpeed='10' />
    <vehicle id='W_S_77' type='standard_car' route='W_S' depart='355.0' departLane='random' departSpeed='10' />
    <vehicle id='E_W_78' type='standard_car' route='E_W' depart='356.0' departLane='random' departSpeed='10' />
    <vehicle id='S_N_79' type='standard_car' route='S_N' depart='362.0' departLane='random' departSpeed='10' />
    <vehicle id='S_E_80' type='standard_car' route='S_E' depart='363.0' departLane='random' departSpeed='10' />
    <vehicle id='W_E_81' type='standard_car' route='W_E' depart='365.0' departLane='random' departSpeed='10' />
    <vehicle id='E_W_82' type='standard_car' route='E_W' depart='369.0' departLane='random' departSpeed='10' />
    <vehicle id='E_N_83' type='standard_car' route='E_N' depart='369.0' departLane='random' departSpeed='10' />
    <vehicle id='N_S_84' type='standard_car' route='N_S' depart='370.0' departLane='random' departSpeed='10' />
    <vehicle id='N_W_85' type='standard_car' route='N_W' depart='371.0' departLane='random' departSpeed='10' />
    <vehicle id='W_E_86' type='standard_car' route='W_E' depart='374.0' departLane='random' departSpeed='10' />
    <vehicle id='S_E_87' type='standard_car' route='S_E' depart='376.0' departLane='random' departSpeed='10' />
    <vehicle id='E_W_88' type='standard_car' route='E_W' depart='382.0' departLane='random' departSpeed='10' />
    <vehicle id='E_N_89' type='standard_car' route='E_N' depart='388.0' departLane='random' departSpeed='10' />
    <vehicle id='E_N_90' type='standard_car' route='E_N' depart='390.0' departLane='random' departSpeed='10' />
    <vehicle id='S_N_91' type='standard_car' route='S_N' depart='392.0' departLane='random' departSpeed='10' />
    <vehicle id='W_S_92' type='standard_car' route='W_S' depart='392.0' departLane='random' departSpeed='10' />
    <vehicle id='S_N_93' type='standard_car' route='S_N' depart='395.0' departLane='random' departSpeed='10' />
    <vehicle id='N_W_94' type='standard_car' route='N_W' depart='397.0' departLane='random' departSpeed='10' />
    <vehicle id='N_W_95' type='standard_car' route='N_W' depart='398.0' departLane='random' departSpeed='10' />
    <vehicle id='W_E_96' type='standard_car' route='W_E' depart='400.0' departLane='random' departSpeed='10' />
    <vehicle id='S_E_97' type='standard_car' route='S_E' depart='400.0' departLane='random' departSpeed='10' />
    <vehicle id='E_N_98' type='standard_car' route='E_N' depart='400.0' departLane='random' departSpeed='10' />
    <vehicle id='S_E_99' type='standard_car' route='S_E' depart='404.0' departLane='random' departSpeed='10' />
    <vehicle id='S_N_100' type='standard_car' route='S_N' depart='405.0' departLane='random' departSpeed='10' />
    <vehicle id='S_E_101' type='standard_car' route='S_E' depart='405.0' departLane='random' departSpeed='10' />
    <vehicle id='N_W_102' type='standard_car' route='N_W' depart='407.0' departLane='random' departSpeed='10' />
    <vehicle id='N_S_103' type='standard_car' route='N_S' depart='409.0' departLane='random' departSpeed='10' />
    <vehicle id='W_S_104' type='standard_car' route='W_S' depart='412.0' departLane='random' departSpeed='10' />
    <vehicle id='N_S_105' type='standard_car' route='N_S' depart='412.0' departLane='random' departSpeed='10' />
    <vehicle id='E_N_106' type='standard_car' route='E_N' depart='413.0' departLane='random' departSpeed='10' />
    <vehicle id='N_S_107' type='standard_car' route='N_S' depart='414.0' departLane='random' departSpeed='10' />
    <vehicle id='N_W_108' type='standard_car' route='N_W' depart='414.0' departLane='random' departSpeed='10' />
    <vehicle id='S_E_109' type='standard_car' route='S_E' depart='415.0' departLane='random' departSpeed='10' />
    <vehicle id='E_N_110' type='standard_car' route='E_N' depart='417.0' departLane='random' departSpeed='10' />
    <vehicle id='W_S_111' type='standard_car' route='W_S' depart='417.0' departLane='random' departSpeed='10' />
    <vehicle id='W_S_112' type='standard_car' route='W_S' depart='419.0' departLane='random' departSpeed='10' />
    <vehicle id='S_N_113' type='standard_car' route='S_N' depart='420.0' departLane='random' departSpeed='10' />
    <vehicle id='E_N_114' type='standard_car' route='E_N' depart='421.0' departLane='random' departSpeed='10' />
    <vehicle id='E_N_115' type='standard_car' route='E_N' depart='423.0' departLane='random' departSpeed='10' />
    <vehicle id='W_S_116' type='standard_car' route='W_S' depart='434.0' departLane='random' departSpeed='10' />
    <vehicle id='N_W_117' type='standard_car' route='N_W' depart='436.0' departLane='random' departSpeed='10' />
    <vehicle id='W_E_118' type='standard_car' route='W_E' depart='436.0' departLane='random' departSpeed='10' />
    <vehicle id='E_N_119' type='standard_car' route='E_N' depart='437.0' departLane='random' departSpeed='10' />
    <vehicle id='S_E_120' type='standard_car' route='S_E' depart='439.0' departLane='random' departSpeed='10' />
    <vehicle id='E_W_121' type='standard_car' route='E_W' depart='443.0' departLane='random' departSpeed='10' />
    <vehicle id='E_N_122' type='standard_car' route='E_N' depart='445.0' departLane='random' departSpeed='10' />
    <vehicle id='W_S_123' type='standard_car' route='W_S' depart='447.0' departLane='random' departSpeed='10' />
    <vehicle id='W_S_124' type='standard_car' route='W_S' depart='448.0' departLane='random' departSpeed='10' />
    <vehicle id='E_W_125' type='standard_car' route='E_W' depart='454.0' departLane='random' departSpeed='10' />
    <vehicle id='N_W_126' type='standard_car' route='N_W' depart='454.0' departLane='random' departSpeed='10' />
    <vehicle id='E_N_127' type='standard_car' route='E_N' depart='457.0' departLane='random' departSpeed='10' />
    <vehicle id='E_N_128' type='standard_car' route='E_N' depart='460.0' departLane='random' departSpeed='10' />
    <vehicle id='W_S_129' type='standard_car' route='W_S' depart='460.0' departLane='random' departSpeed='10' />
    <vehicle id='W_S_130' type='standard_car' route='W_S' depart='463.0' departLane='random' departSpeed='10' />
    <vehicle id='W_S_131' type='standard_car' route='W_S' depart='463.0' departLane='random' departSpeed='10' />
    <vehicle id='W_S_132' type='standard_car' route='W_S' depart='463.0' departLane='random' departSpeed='10' />
    <vehicle id='E_N_133' type='standard_car' route='E_N' depart='469.0' departLane='random' departSpeed='10' />
    <vehicle id='E_N_134' type='standard_car' route='E_N' depart='470.0' departLane='random' departSpeed='10' />
    <vehicle id='W_E_135' type='standard_car' route='W_E' depart='471.0' departLane='random' departSpeed='10' />
    <vehicle id='E_N_136' type='standard_car' route='E_N' depart='482.0' departLane='random' departSpeed='10' />
    <vehicle id='E_N_137' type='standard_car' route='E_N' depart='483.0' departLane='random' departSpeed='10' />
    <vehicle id='W_S_138' type='standard_car' route='W_S' depart='487.0' departLane='random' departSpeed='10' />
    <vehicle id='E_N_139' type='standard_car' route='E_N' depart='492.0' departLane='random' departSpeed='10' />
    <vehicle id='W_S_140' type='standard_car' route='W_S' depart='492.0' departLane='random' departSpeed='10' />
    <vehicle id='N_W_141' type='standard_car' route='N_W' depart='494.0' departLane='random' departSpeed='10' />
    <vehicle id='E_W_142' type='standard_car' route='E_W' depart='495.0' departLane='random' departSpeed='10' />
    <vehicle id='S_N_143' type='standard_car' route='S_N' depart='496.0' departLane='random' departSpeed='10' />
    <vehicle id='N_W_144' type='standard_car' route='N_W' depart='502.0' departLane='random' departSpeed='10' />
    <vehicle id='S_E_145' type='standard_car' route='S_E' depart='503.0' departLane='random' departSpeed='10' />
    <vehicle id='W_S_146' type='standard_car' route='W_S' depart='504.0' departLane='random' departSpeed='10' />
    <vehicle id='E_W_147' type='standard_car' route='E_W' depart='504.0' departLane='random' departSpeed='10' />
    <vehicle id='E_W_148' type='standard_car' route='E_W' depart='507.0' departLane='random' departSpeed='10' />
    <vehicle id='E_N_149' type='standard_car' route='E_N' depart='512.0' departLane='random' departSpeed='10' />
    <vehicle id='W_S_150' type='standard_car' route='W_S' depart='513.0' departLane='random' departSpeed='10' />
    <vehicle id='W_S_151' type='standard_car' route='W_S' depart='515.0' departLane='random' departSpeed='10' />
    <vehicle id='E_W_152' type='standard_car' route='E_W' depart='521.0' departLane='random' departSpeed='10' />
    <vehicle id='N_S_153' type='standard_car' route='N_S' depart='521.0' departLane='random' departSpeed='10' />
    <vehicle id='W_S_154' type='standard_car' route='W_S' depart='522.0' departLane='random' departSpeed='10' />
    <vehicle id='S_E_155' type='standard_car' route='S_E' depart='525.0' departLane='random' departSpeed='10' />
    <vehicle id='W_S_156' type='standard_car' route='W_S' depart='527.0' departLane='random' departSpeed='10' />
    <vehicle id='E_N_157' type='standard_car' route='E_N' depart='527.0' departLane='random' departSpeed='10' />
    <vehicle id='W_E_158' type='standard_car' route='W_E' depart='528.0' departLane='random' departSpeed='10' />
    <vehicle id='E_W_159' type='standard_car' route='E_W' depart='530.0' departLane='random' departSpeed='10' />
    <vehicle id='E_N_160' type='standard_car' route='E_N' depart='532.0' departLane='random' departSpeed='10' />
    <vehicle id='W_E_161' type='standard_car' route='W_E' depart='534.0' departLane='random' departSpeed='10' />
    <vehicle id='E_N_162' type='standard_car' route='E_N' depart='535.0' departLane='random' departSpeed='10' />
    <vehicle id='N_S_163' type='standard_car' route='N_S' depart='535.0' departLane='random' departSpeed='10' />
    <vehicle id='W_E_164' type='standard_car' route='W_E' depart='537.0' departLane='random' departSpeed='10' />
    <vehicle id='S_E_165' type='standard_car' route='S_E' depart='541.0' departLane='random' departSpeed='10' />
    <vehicle id='N_S_166' type='standard_car' route='N_S' depart='544.0' departLane='random' departSpeed='10' />
    <vehicle id='W_E_167' type='standard_car' route='W_E' depart='544.0' departLane='random' departSpeed='10' />
    <vehicle id='S_E_168' type='standard_car' route='S_E' depart='546.0' departLane='random' departSpeed='10' />
    <vehicle id='S_N_169' type='standard_car' route='S_N' depart='547.0' departLane='random' departSpeed='10' />
    <vehicle id='W_E_170' type='standard_car' route='W_E' depart='550.0' departLane='random' departSpeed='10' />
    <vehicle id='S_E_171' type='standard_car' route='S_E' depart='550.0' departLane='random' departSpeed='10' />
    <vehicle id='W_S_172' type='standard_car' route='W_S' depart='556.0' departLane='random' departSpeed='10' />
    <vehicle id='S_E_173' type='standard_car' route='S_E' depart='557.0' departLane='random' departSpeed='10' />
    <vehicle id='W_E_174' type='standard_car' route='W_E' depart='562.0' departLane='random' departSpeed='10' />
    <vehicle id='S_E_175' type='standard_car' route='S_E' depart='563.0' departLane='random' departSpeed='10' />
    <vehicle id='S_E_176' type='standard_car' route='S_E' depart='563.0' departLane='random' departSpeed='10' />
    <vehicle id='E_N_177' type='standard_car' route='E_N' depart='564.0' departLane='random' departSpeed='10' />
    <vehicle id='E_N_178' type='standard_car' route='E_N' depart='565.0' departLane='random' departSpeed='10' />
    <vehicle id='N_W_179' type='standard_car' route='N_W' depart='568.0' departLane='random' departSpeed='10' />
    <vehicle id='E_N_180' type='standard_car' route='E_N' depart='572.0' departLane='random' departSpeed='10' />
    <vehicle id='E_N_181' type='standard_car' route='E_N' depart='572.0' departLane='random' departSpeed='10' />
    <vehicle id='S_E_182' type='standard_car' route='S_E' depart='575.0' departLane='random' departSpeed='10' />
    <vehicle id='E_W_183' type='standard_car' route='E_W' depart='575.0' departLane='random' departSpeed='10' />
    <vehicle id='S_N_184' type='standard_car' route='S_N' depart='576.0' departLane='random' departSpeed='10' />
    <vehicle id='W_S_185' type='standard_car' route='W_S' depart='577.0' departLane='random' departSpeed='10' />
    <vehicle id='E_W_186' type='standard_car' route='E_W' depart='583.0' departLane='random' departSpeed='10' />
    <vehicle id='S_N_187' type='standard_car' route='S_N' depart='583.0' departLane='random' departSpeed='10' />
    <vehicle id='W_E_188' type='standard_car' route='W_E' depart='584.0' departLane='random' departSpeed='10' />
    <vehicle id='S_E_189' type='standard_car' route='S_E' depart='584.0' departLane='random' departSpeed='10' />
    <vehicle id='S_N_190' type='standard_car' route='S_N' depart='586.0' departLane='random' departSpeed='10' />
    <vehicle id='W_S_191' type='standard_car' route='W_S' depart='586.0' departLane='random' departSpeed='10' />
    <vehicle id='S_N_192' type='standard_car' route='S_N' depart='587.0' departLane='random' departSpeed='10' />
    <vehicle id='N_W_193' type='standard_car' route='N_W' depart='587.0' departLane='random' departSpeed='10' />
    <vehicle id='E_W_194' type='standard_car' route='E_W' depart='588.0' departLane='random' departSpeed='10' />
    <vehicle id='N_W_195' type='standard_car' route='N_W' depart='589.0' departLane='random' departSpeed='10' />
    <vehicle id='E_N_196' type='standard_car' route='E_N' depart='590.0' departLane='random' departSpeed='10' />
    <vehicle id='W_E_197' type='standard_car' route='W_E' depart='591.0' departLane='random' departSpeed='10' />
    <vehicle id='S_N_198' type='standard_car' route='S_N' depart='592.0' departLane='random' departSpeed='10' />
    <vehicle id='N_S_199' type='standard_car' route='N_S' depart='594.0' departLane='random' departSpeed='10' />
    <vehicle id='N_W_200' type='standard_car' route='N_W' depart='597.0' departLane='random' departSpeed='10' />
    <vehicle id='S_E_201' type='standard_car' route='S_E' depart='601.0' departLane='random' departSpeed='10' />
    <vehicle id='S_N_202' type='standard_car' route='S_N' depart='601.0' departLane='random' departSpeed='10' />
    <vehicle id='W_S_203' type='standard_car' route='W_S' depart='603.0' departLane='random' departSpeed='10' />
    <vehicle id='N_W_204' type='standard_car' route='N_W' depart='604.0' departLane='random' departSpeed='10' />
    <vehicle id='E_W_205' type='standard_car' route='E_W' depart='604.0' departLane='random' departSpeed='10' />
    <vehicle id='N_W_206' type='standard_car' route='N_W' depart='606.0' departLane='random' departSpeed='10' />
    <vehicle id='E_N_207' type='standard_car' route='E_N' depart='606.0' departLane='random' departSpeed='10' />
    <vehicle id='E_W_208' type='standard_car' route='E_W' depart='607.0' departLane='random' departSpeed='10' />
    <vehicle id='E_N_209' type='standard_car' route='E_N' depart='609.0' departLane='random' departSpeed='10' />
    <vehicle id='E_N_210' type='standard_car' route='E_N' depart='610.0' departLane='random' departSpeed='10' />
    <vehicle id='W_E_211' type='standard_car' route='W_E' depart='610.0' departLane='random' departSpeed='10' />
    <vehicle id='W_S_212' type='standard_car' route='W_S' depart='612.0' departLane='random' departSpeed='10' />
    <vehicle id='S_N_213' type='standard_car' route='S_N' depart='615.0' departLane='random' departSpeed='10' />
    <vehicle id='S_E_214' type='standard_car' route='S_E' depart='615.0' departLane='random' departSpeed='10' />
    <vehicle id='N_S_215' type='standard_car' route='N_S' depart='617.0' departLane='random' departSpeed='10' />
    <vehicle id='N_W_216' type='standard_car' route='N_W' depart='618.0' departLane='random' departSpeed='10' />
    <vehicle id='W_E_217' type='standard_car' route='W_E' depart='619.0' departLane='random' departSpeed='10' />
    <vehicle id='N_S_218' type='standard_car' route='N_S' depart='621.0' departLane='random' departSpeed='10' />
    <vehicle id='N_S_219' type='standard_car' route='N_S' depart='622.0' departLane='random' departSpeed='10' />
    <vehicle id='E_W_220' type='standard_car' route='E_W' depart='622.0' departLane='random' departSpeed='10' />
    <vehicle id='E_N_221' type='standard_car' route='E_N' depart='623.0' departLane='random' departSpeed='10' />
    <vehicle id='S_N_222' type='standard_car' route='S_N' depart='624.0' departLane='random' departSpeed='10' />
    <vehicle id='S_E_223' type='standard_car' route='S_E' depart='624.0' departLane='random' departSpeed='10' />
    <vehicle id='N_S_224' type='standard_car' route='N_S' depart='625.0' departLane='random' departSpeed='10' />
    <vehicle id='E_N_225' type='standard_car' route='E_N' depart='626.0' departLane='random' departSpeed='10' />
    <vehicle id='N_W_226' type='standard_car' route='N_W' depart='626.0' departLane='random' departSpeed='10' />
    <vehicle id='W_S_227' type='standard_car' route='W_S' depart='628.0' departLane='random' departSpeed='10' />
    <vehicle id='N_S_228' type='standard_car' route='N_S' depart='629.0' departLane='random' departSpeed='10' />
    <vehicle id='W_S_229' type='standard_car' route='W_S' depart='632.0' departLane='random' departSpeed='10' />
    <vehicle id='N_W_230' type='standard_car' route='N_W' depart='632.0' departLane='random' departSpeed='10' />
    <vehicle id='S_E_231' type='standard_car' route='S_E' depart='634.0' departLane='random' departSpeed='10' />
    <vehicle id='W_S_232' type='standard_car' route='W_S' depart='634.0' departLane='random' departSpeed='10' />
    <vehicle id='E_N_233' type='standard_car' route='E_N' depart='634.0' departLane='random' departSpeed='10' />
    <vehicle id='E_N_234' type='standard_car' route='E_N' depart='637.0' departLane='random' departSpeed='10' />
    <vehicle id='S_E_235' type='standard_car' route='S_E' depart='637.0' departLane='random' departSpeed='10' />
    <vehicle id='E_N_236' type='standard_car' route='E_N' depart='640.0' departLane='random' departSpeed='10' />
    <vehicle id='E_W_237' type='standard_car' route='E_W' depart='642.0' departLane='random' departSpeed='10' />
    <vehicle id='E_N_238' type='standard_car' route='E_N' depart='642.0' departLane='random' departSpeed='10' />
    <vehicle id='W_E_239' type='standard_car' route='W_E' depart='642.0' departLane='random' departSpeed='10' />
    <vehicle id='N_W_240' type='standard_car' route='N_W' depart='643.0' departLane='random' departSpeed='10' />
    <vehicle id='W_S_241' type='standard_car' route='W_S' depart='644.0' departLane='random' departSpeed='10' />
    <vehicle id='S_E_242' type='standard_car' route='S_E' depart='645.0' departLane='random' departSpeed='10' />
    <vehicle id='S_E_243' type='standard_car' route='S_E' depart='653.0' departLane='random' departSpeed='10' />
    <vehicle id='E_W_244' type='standard_car' route='E_W' depart='656.0' departLane='random' departSpeed='10' />
    <vehicle id='N_W_245' type='standard_car' route='N_W' depart='656.0' departLane='random' departSpeed='10' />
    <vehicle id='W_S_246' type='standard_car' route='W_S' depart='656.0' departLane='random' departSpeed='10' />
    <vehicle id='W_S_247' type='standard_car' route='W_S' depart='656.0' departLane='random' departSpeed='10' />
    <vehicle id='N_W_248' type='standard_car' route='N_W' depart='658.0' departLane='random' departSpeed='10' />
    <vehicle id='S_E_249' type='standard_car' route='S_E' depart='658.0' departLane='random' departSpeed='10' />
    <vehicle id='E_W_250' type='standard_car' route='E_W' depart='661.0' departLane='random' departSpeed='10' />
    <vehicle id='N_S_251' type='standard_car' route='N_S' depart='664.0' departLane='random' departSpeed='10' />
    <vehicle id='W_S_252' type='standard_car' route='W_S' depart='666.0' departLane='random' departSpeed='10' />
    <vehicle id='S_E_253' type='standard_car' route='S_E' depart='666.0' departLane='random' departSpeed='10' />
    <vehicle id='S_E_254' type='standard_car' route='S_E' depart='666.0' departLane='random' departSpeed='10' />
    <vehicle id='S_E_255' type='standard_car' route='S_E' depart='669.0' departLane='random' departSpeed='10' />
    <vehicle id='S_N_256' type='standard_car' route='S_N' depart='670.0' departLane='random' departSpeed='10' />
    <vehicle id='N_W_257' type='standard_car' route='N_W' depart='670.0' departLane='random' departSpeed='10' />