<routes>
    <vType id="standard_car" length="5.0" maxSpeed="11.11" minGap="2.5" accel="2.0" decel="4.5" />
    <route id="N_S" edges="road_1_2_3 road_1_1_3"/>
    <route id="N_E" edges="road_1_2_3 road_1_1_0"/>
    <route id="N_W" edges="road_1_2_3 road_1_1_2"/>
    <route id="S_W" edges="road_1_0_1 road_1_1_2"/>
    <route id="S_E" edges="road_1_0_1 road_1_1_0"/>
    <route id="S_N" edges="road_1_0_1 road_1_1_1"/>

    <route id="W_E" edges="road_0_1_0 road_1_1_0"/>
    <route id="W_N" edges="road_0_1_0 road_1_1_1"/>
    <route id="W_S" edges="road_0_1_0 road_1_1_3"/>
    <route id="E_N" edges="road_2_1_2 road_1_1_1"/>
    <route id="E_S" edges="road_2_1_2 road_1_1_3"/>
    <route id="E_W" edges="road_2_1_2 road_1_1_2"/>
            
    <vehicle id='S_N_0' type='standard_car' route='S_N' depart='23.0' departLane='random' departSpeed='10' />
    <vehicle id='E_W_1' type='standard_car' route='E_W' depart='38.0' departLane='random' departSpeed='10' />
    <vehicle id='S_N_2' type='standard_car' route='S_N' depart='83.0' departLane='random' departSpeed='10' />
    <vehicle id='N_S_3' type='standard_car' route='N_S' depart='84.0' departLane='random' departSpeed='10' />
    <vehicle id='S_N_4' type='standard_car' route='S_N' depart='107.0' departLane='random' departSpeed='10' />
    <vehicle id='N_S_5' type='standard_car' route='N_S' depart='112.0' departLane='random' departSpeed='10' />
    <vehicle id='N_S_6' type='standard_car' route='N_S' depart='113.0' departLane='random' departSpeed='10' />
    <vehicle id='E_W_7' type='standard_car' route='E_W' depart='117.0' departLane='random' departSpeed='10' />
    <vehicle id='E_W_8' type='standard_car' route='E_W' depart='119.0' departLane='random' departSpeed='10' />
    <vehicle id='N_S_9' type='standard_car' route='N_S' depart='123.0' departLane='random' departSpeed='10' />
    <vehicle id='W_S_10' type='standard_car' route='W_S' depart='131.0' departLane='random' departSpeed='10' />
    <vehicle id='N_S_11' type='standard_car' route='N_S' depart='138.0' departLane='random' departSpeed='10' />
    <vehicle id='N_S_12' type='standard_car' route='N_S' depart='142.0' departLane='random' departSpeed='10' />
    <vehicle id='W_E_13' type='standard_car' route='W_E' depart='143.0' departLane='random' departSpeed='10' />
    <vehicle id='E_W_14' type='standard_car' route='E_W' depart='151.0' departLane='random' departSpeed='10' />
    <vehicle id='S_N_15' type='standard_car' route='S_N' depart='151.0' departLane='random' departSpeed='10' />
    <vehicle id='W_E_16' type='standard_car' route='W_E' depart='160.0' departLane='random' departSpeed='10' />
    <vehicle id='W_E_17' type='standard_car' route='W_E' depart='161.0' departLane='random' departSpeed='10' />
    <vehicle id='N_S_18' type='standard_car' route='N_S' depart='162.0' departLane='random' departSpeed='10' />
    <vehicle id='W_E_19' type='standard_car' route='W_E' depart='162.0' departLane='random' departSpeed='10' />
    <vehicle id='E_W_20' type='standard_car' route='E_W' depart='163.0' departLane='random' departSpeed='10' />
    <vehicle id='S_E_21' type='standard_car' route='S_E' depart='167.0' departLane='random' departSpeed='10' />
    <vehicle id='E_W_22' type='standard_car' route='E_W' depart='170.0' departLane='random' departSpeed='10' />
    <vehicle id='S_N_23' type='standard_car' route='S_N' depart='180.0' departLane='random' departSpeed='10' />
    <vehicle id='N_W_24' type='standard_car' route='N_W' depart='185.0' departLane='random' departSpeed='10' />
    <vehicle id='S_E_25' type='standard_car' route='S_E' depart='187.0' departLane='random' departSpeed='10' />
    <vehicle id='N_W_26' type='standard_car' route='N_W' depart='190.0' departLane='random' departSpeed='10' />
    <vehicle id='S_E_27' type='standard_car' route='S_E' depart='193.0' departLane='random' departSpeed='10' />
    <vehicle id='S_N_28' type='standard_car' route='S_N' depart='197.0' departLane='random' departSpeed='10' />
    <vehicle id='E_W_29' type='standard_car' route='E_W' depart='207.0' departLane='random' departSpeed='10' />
    <vehicle id='N_S_30' type='standard_car' route='N_S' depart='214.0' departLane='random' departSpeed='10' />
    <vehicle id='W_S_31' type='standard_car' route='W_S' depart='215.0' departLane='random' departSpeed='10' />
    <vehicle id='N_W_32' type='standard_car' route='N_W' depart='216.0' departLane='random' departSpeed='10' />
    <vehicle id='N_S_33' type='standard_car' route='N_S' depart='220.0' departLane='random' departSpeed='10' />
    <vehicle id='E_N_34' type='standard_car' route='E_N' depart='223.0' departLane='random' departSpeed='10' />
    <vehicle id='E_W_35' type='standard_car' route='E_W' depart='225.0' departLane='random' departSpeed='10' />
    <vehicle id='W_S_36' type='standard_car' route='W_S' depart='226.0' departLane='random' departSpeed='10' />
    <vehicle id='S_N_37' type='standard_car' route='S_N' depart='230.0' departLane='random' departSpeed='10' />
    <vehicle id='W_E_38' type='standard_car' route='W_E' depart='235.0' departLane='random' departSpeed='10' />
    <vehicle id='W_S_39' type='standard_car' route='W_S' depart='236.0' departLane='random' departSpeed='10' />
    <vehicle id='E_W_40' type='standard_car' route='E_W' depart='239.0' departLane='random' departSpeed='10' />
    <vehicle id='N_W_41' type='standard_car' route='N_W' depart='242.0' departLane='random' departSpeed='10' />
    <vehicle id='N_S_42' type='standard_car' route='N_S' depart='243.0' departLane='random' departSpeed='10' />
    <vehicle id='W_S_43' type='standard_car' route='W_S' depart='252.0' departLane='random' departSpeed='10' />
    <vehicle id='S_N_44' type='standard_car' route='S_N' depart='260.0' departLane='random' departSpeed='10' />
    <vehicle id='S_N_45' type='standard_car' route='S_N' depart='262.0' departLane='random' departSpeed='10' />
    <vehicle id='N_S_46' type='standard_car' route='N_S' depart='267.0' departLane='random' departSpeed='10' />
    <vehicle id='S_N_47' type='standard_car' route='S_N' depart='268.0' departLane='random' departSpeed='10' />
    <vehicle id='E_N_48' type='standard_car' route='E_N' depart='271.0' departLane='random' departSpeed='10' />
    <vehicle id='E_W_49' type='standard_car' route='E_W' depart='276.0' departLane='random' departSpeed='10' />
    <vehicle id='E_N_50' type='standard_car' route='E_N' depart='276.0' departLane='random' departSpeed='10' />
    <vehicle id='E_N_51' type='standard_car' route='E_N' depart='280.0' departLane='random' departSpeed='10' />
    <vehicle id='W_E_52' type='standard_car' route='W_E' depart='280.0' departLane='random' departSpeed='10' />
    <vehicle id='N_S_53' type='standard_car' route='N_S' depart='282.0' departLane='random' departSpeed='10' />
    <vehicle id='W_E_54' type='standard_car' route='W_E' depart='290.0' departLane='random' departSpeed='10' />
    <vehicle id='S_N_55' type='standard_car' route='S_N' depart='293.0' departLane='random' departSpeed='10' />
    <vehicle id='E_W_56' type='standard_car' route='E_W' depart='294.0' departLane='random' departSpeed='10' />
    <vehicle id='W_E_57' type='standard_car' route='W_E' depart='304.0' departLane='random' departSpeed='10' />
    <vehicle id='N_W_58' type='standard_car' route='N_W' depart='307.0' departLane='random' departSpeed='10' />
    <vehicle id='E_W_59' type='standard_car' route='E_W' depart='311.0' departLane='random' departSpeed='10' />
    <vehicle id='N_S_60' type='standard_car' route='N_S' depart='311.0' departLane='random' departSpeed='10' />
    <vehicle id='S_N_61' type='standard_car' route='S_N' depart='312.0' departLane='random' departSpeed='10' />
    <vehicle id='N_S_62' type='standard_car' route='N_S' depart='314.0' departLane='random' departSpeed='10' />
    <vehicle id='S_N_63' type='standard_car' route='S_N' depart='315.0' departLane='random' departSpeed='10' />
    <vehicle id='E_W_64' type='standard_car' route='E_W' depart='315.0' departLane='random' departSpeed='10' />
    <vehicle id='N_W_65' type='standard_car' route='N_W' depart='317.0' departLane='random' departSpeed='10' />
    <vehicle id='E_W_66' type='standard_car' route='E_W' depart='317.0' departLane='random' departSpeed='10' />
    <vehicle id='S_N_67' type='standard_car' route='S_N' depart='318.0' departLane='random' departSpeed='10' />
    <vehicle id='N_W_68' type='standard_car' route='N_W' depart='319.0' departLane='random' departSpeed='10' />
    <vehicle id='S_E_69' type='standard_car' route='S_E' depart='320.0' departLane='random' departSpeed='10' />
    <vehicle id='N_W_70' type='standard_car' route='N_W' depart='321.0' departLane='random' departSpeed='10' />
    <vehicle id='E_W_71' type='standard_car' route='E_W' depart='329.0' departLane='random' departSpeed='10' />
    <vehicle id='N_S_72' type='standard_car' route='N_S' depart='329.0' departLane='random' departSpeed='10' />
    <vehicle id='N_S_73' type='standard_car' route='N_S' depart='330.0' departLane='random' departSpeed='10' />
    <vehicle id='E_W_74' type='standard_car' route='E_W' depart='333.0' departLane='random' departSpeed='10' />
    <vehicle id='E_N_75' type='standard_car' route='E_N' depart='336.0' departLane='random' departSpeed='10' />
    <vehicle id='N_W_76' type='standard_car' route='N_W' depart='338.0' departLane='random' departSpeed='10' />
    <vehicle id='S_N_77' type='standard_car' route='S_N' depart='339.0' departLane='random' departSpeed='10' />
    <vehicle id='W_S_78' type='standard_car' route='W_S' depart='348.0' departLane='random' departSpeed='10' />
    <vehicle id='N_S_79' type='standard_car' route='N_S' depart='348.0' departLane='random' departSpeed='10' />
    <vehicle id='S_N_80' type='standard_car' route='S_N' depart='348.0' departLane='random' departSpeed='10' />
    <vehicle id='S_N_81' type='standard_car' route='S_N' depart='349.0' departLane='random' departSpeed='10' />
    <vehicle id='E_W_82' type='standard_car' route='E_W' depart='351.0' departLane='random' departSpeed='10' />
    <vehicle id='E_W_83' type='standard_car' route='E_W' depart='354.0' departLane='random' departSpeed='10' />
    <vehicle id='S_E_84' type='standard_car' route='S_E' depart='355.0' departLane='random' departSpeed='10' />
    <vehicle id='N_W_85' type='standard_car' route='N_W' depart='355.0' departLane='random' departSpeed='10' />
    <vehicle id='S_N_86' type='standard_car' route='S_N' depart='356.0' departLane='random' departSpeed='10' />
    <vehicle id='S_E_87' type='standard_car' route='S_E' depart='357.0' departLane='random' departSpeed='10' />
    <vehicle id='W_E_88' type='standard_car' route='W_E' depart='359.0' departLane='random' departSpeed='10' />
    <vehicle id='E_W_89' type='standard_car' route='E_W' depart='361.0' departLane='random' departSpeed='10' />
    <vehicle id='W_E_90' type='standard_car' route='W_E' depart='363.0' departLane='random' departSpeed='10' />
    <vehicle id='E_N_91' type='standard_car' route='E_N' depart='364.0' departLane='random' departSpeed='10' />
    <vehicle id='N_S_92' type='standard_car' route='N_S' depart='368.0' departLane='random' departSpeed='10' />
    <vehicle id='W_E_93' type='standard_car' route='W_E' depart='370.0' departLane='random' departSpeed='10' />
    <vehicle id='N_W_94' type='standard_car' route='N_W' depart='377.0' departLane='random' departSpeed='10' />
    <vehicle id='W_S_95' type='standard_car' route='W_S' depart='379.0' departLane='random' departSpeed='10' />
    <vehicle id='W_E_96' type='standard_car' route='W_E' depart='381.0' departLane='random' departSpeed='10' />
    <vehicle id='E_W_97' type='standard_car' route='E_W' depart='382.0' departLane='random' departSpeed='10' />
    <vehicle id='W_E_98' type='standard_car' route='W_E' depart='382.0' departLane='random' departSpeed='10' />
    <vehicle id='S_N_99' type='standard_car' route='S_N' depart='383.0' departLane='random' departSpeed='10' />
    <vehicle id='E_N_100' type='standard_car' route='E_N' depart='385.0' departLane='random' departSpeed='10' />
    <vehicle id='N_S_101' type='standard_car' route='N_S' depart='386.0' departLane='random' departSpeed='10' />
    <vehicle id='N_W_102' type='standard_car' route='N_W' depart='388.0' departLane='random' departSpeed='10' />
    <vehicle id='W_E_103' type='standard_car' route='W_E' depart='389.0' departLane='random' departSpeed='10' />
    <vehicle id='S_E_104' type='standard_car' route='S_E' depart='393.0' departLane='random' departSpeed='10' />
    <vehicle id='E_N_105' type='standard_car' route='E_N' depart='399.0' departLane='random' departSpeed='10' />
    <vehicle id='S_E_106' type='standard_car' route='S_E' depart='404.0' departLane='random' departSpeed='10' />
    <vehicle id='N_S_107' type='standard_car' route='N_S' depart='405.0' departLane='random' departSpeed='10' />
    <vehicle id='W_E_108' type='standard_car' route='W_E' depart='410.0' departLane='random' departSpeed='10' />
    <vehicle id='S_N_109' type='standard_car' route='S_N' depart='414.0' departLane='random' departSpeed='10' />
    <vehicle id='S_N_110' type='standard_car' route='S_N' depart='414.0' departLane='random' departSpeed='10' />
    <vehicle id='E_W_111' type='standard_car' route='E_W' depart='415.0' departLane='random' departSpeed='10' />
    <vehicle id='W_S_112' type='standard_car' route='W_S' depart='417.0' departLane='random' departSpeed='10' />
    <vehicle id='N_S_113' type='standard_car' route='N_S' depart='419.0' departLane='random' departSpeed='10' />
    <vehicle id='S_E_114' type='standard_car' route='S_E' depart='420.0' departLane='random' departSpeed='10' />
    <vehicle id='S_N_115' type='standard_car' route='S_N' depart='424.0' departLane='random' departSpeed='10' />
    <vehicle id='S_N_116' type='standard_car' route='S_N' depart='427.0' departLane='random' departSpeed='10' />
    <vehicle id='E_N_117' type='standard_car' route='E_N' depart='427.0' departLane='random' departSpeed='10' />
    <vehicle id='W_E_118' type='standard_car' route='W_E' depart='429.0' departLane='random' departSpeed='10' />
    <vehicle id='N_S_119' type='standard_car' route='N_S' depart='431.0' departLane='random' departSpeed='10' />
    <vehicle id='W_E_120' type='standard_car' route='W_E' depart='432.0' departLane='random' departSpeed='10' />
    <vehicle id='N_S_121' type='standard_car' route='N_S' depart='434.0' departLane='random' departSpeed='10' />
    <vehicle id='E_W_122' type='standard_car' route='E_W' depart='435.0' departLane='random' departSpeed='10' />
    <vehicle id='S_E_123' type='standard_car' route='S_E' depart='437.0' departLane='random' departSpeed='10' />
    <vehicle id='N_S_124' type='standard_car' route='N_S' depart='437.0' departLane='random' departSpeed='10' />
    <vehicle id='S_E_125' type='standard_car' route='S_E' depart='437.0' departLane='random' departSpeed='10' />
    <vehicle id='S_N_126' type='standard_car' route='S_N' depart='437.0' departLane='random' departSpeed='10' />
    <vehicle id='E_N_127' type='standard_car' route='E_N' depart='441.0' departLane='random' departSpeed='10' />
    <vehicle id='S_N_128' type='standard_car' route='S_N' depart='441.0' departLane='random' departSpeed='10' />
    <vehicle id='N_S_129' type='standard_car' route='N_S' depart='442.0' departLane='random' departSpeed='10' />
    <vehicle id='E_N_130' type='standard_car' route='E_N' depart='442.0' departLane='random' departSpeed='10' />
    <vehicle id='S_E_131' type='standard_car' route='S_E' depart='445.0' departLane='random' departSpeed='10' />
    <vehicle id='N_W_132' type='standard_car' route='N_W' depart='446.0' departLane='random' departSpeed='10' />
    <vehicle id='W_S_133' type='standard_car' route='W_S' depart='447.0' departLane='random' departSpeed='10' />
    <vehicle id='W_E_134' type='standard_car' route='W_E' depart='447.0' departLane='random' departSpeed='10' />
    <vehicle id='W_S_135' type='standard_car' route='W_S' depart='449.0' departLane='random' departSpeed='10' />
    <vehicle id='W_E_136' type='standard_car' route='W_E' depart='449.0' departLane='random' departSpeed='10' />
    <vehicle id='E_N_137' type='standard_car' route='E_N' depart='450.0' departLane='random' departSpeed='10' />
    <vehicle id='E_N_138' type='standard_car' route='E_N' depart='452.0' departLane='random' departSpeed='10' />
    <vehicle id='W_E_139' type='standard_car' route='W_E' depart='452.0' departLane='random' departSpeed='10' />
    <vehicle id='S_N_140' type='standard_car' route='S_N' depart='452.0' departLane='random' departSpeed='10' />
    <vehicle id='W_E_141' type='standard_car' route='W_E' depart='454.0' departLane='random' departSpeed='10' />
    <vehicle id='N_S_142' type='standard_car' route='N_S' depart='456.0' departLane='random' departSpeed='10' />
    <vehicle id='S_E_143' type='standard_car' route='S_E' depart='456.0' departLane='random' departSpeed='10' />
    <vehicle id='E_W_144' type='standard_car' route='E_W' depart='457.0' departLane='random' departSpeed='10' />
    <vehicle id='S_N_145' type='standard_car' route='S_N' depart='458.0' departLane='random' departSpeed='10' />
    <vehicle id='N_S_146' type='standard_car' route='N_S' depart='460.0' departLane='random' departSpeed='10' />
    <vehicle id='S_E_147' type='standard_car' route='S_E' depart='461.0' departLane='random' departSpeed='10' />
    <vehicle id='N_W_148' type='standard_car' route='N_W' depart='462.0' departLane='random' departSpeed='10' />
    <vehicle id='E_W_149' type='standard_car' route='E_W' depart='463.0' departLane='random' departSpeed='10' />
    <vehicle id='S_N_150' type='standard_car' route='S_N' depart='464.0' departLane='random' departSpeed='10' />
    <vehicle id='N_S_151' type='standard_car' route='N_S' depart='466.0' departLane='random' departSpeed='10' />
    <vehicle id='E_N_152' type='standard_car' route='E_N' depart='467.0' departLane='random' departSpeed='10' />
    <vehicle id='W_S_153' type='standard_car' route='W_S' depart='470.0' departLane='random' departSpeed='10' />
    <vehicle id='S_E_154' type='standard_car' route='S_E' depart='471.0' departLane='random' departSpeed='10' />
    <vehicle id='S_N_155' type='standard_car' route='S_N' depart='473.0' departLane='random' departSpeed='10' />
    <vehicle id='N_W_156' type='standard_car' route='N_W' depart='473.0' departLane='random' departSpeed='10' />
    <vehicle id='N_S_157' type='standard_car' route='N_S' depart='474.0' departLane='random' departSpeed='10' />
    <vehicle id='W_S_158' type='standard_car' route='W_S' depart='477.0' departLane='random' departSpeed='10' />
    <vehicle id='N_S_159' type='standard_car' route='N_S' depart='477.0' departLane='random' departSpeed='10' />
    <vehicle id='S_N_160' type='standard_car' route='S_N' depart='478.0' departLane='random' departSpeed='10' />
    <vehicle id='N_S_161' type='standard_car' route='N_S' depart='479.0' departLane='random' departSpeed='10' />
    <vehicle id='S_E_162' type='standard_car' route='S_E' depart='479.0' departLane='random' departSpeed='10' />
    <vehicle id='N_S_163' type='standard_car' route='N_S' depart='481.0' departLane='random' departSpeed='10' />
    <vehicle id='W_E_164' type='standard_car' route='W_E' depart='483.0' departLane='random' departSpeed='10' />
    <vehicle id='S_E_165' type='standard_car' route='S_E' depart='484.0' departLane='random' departSpeed='10' />
    <vehicle id='N_W_166' type='standard_car' route='N_W' depart='485.0' departLane='random' departSpeed='10' />
    <vehicle id='W_E_167' type='standard_car' route='W_E' depart='487.0' departLane='random' departSpeed='10' />
    <vehicle id='E_W_168' type='standard_car' route='E_W' depart='487.0' departLane='random' departSpeed='10' />
    <vehicle id='N_W_169' type='standard_car' route='N_W' depart='489.0' departLane='random' departSpeed='10' />
    <vehicle id='S_N_170' type='standard_car' route='S_N' depart='490.0' departLane='random' departSpeed='10' />
    <vehicle id='W_E_171' type='standard_car' route='W_E' depart='497.0' departLane='random' departSpeed='10' />
    <vehicle id='W_S_172' type='standard_car' route='W_S' depart='498.0' departLane='random' departSpeed='10' />
    <vehicle id='E_N_173' type='standard_car' route='E_N' depart='502.0' departLane='random' departSpeed='10' />
    <vehicle id='N_S_174' type='standard_car' route='N_S' depart='503.0' departLane='random' departSpeed='10' />
    <vehicle id='S_N_175' type='standard_car' route='S_N' depart='506.0' departLane='random' departSpeed='10' />
    <vehicle id='S_N_176' type='standard_car' route='S_N' depart='509.0' departLane='random' departSpeed='10' />
    <vehicle id='W_E_177' type='standard_car' route='W_E' depart='510.0' departLane='random' departSpeed='10' />
    <vehicle id='N_S_178' type='standard_car' route='N_S' depart='511.0' departLane='random' departSpeed='10' />
    <vehicle id='S_E_179' type='standard_car' route='S_E' depart='512.0' departLane='random' departSpeed='10' />
    <vehicle id='E_W_180' type='standard_car' route='E_W' depart='514.0' departLane='random' departSpeed='10' />
    <vehicle id='S_E_181' type='standard_car' route='S_E' depart='515.0' departLane='random' departSpeed='10' />
    <vehicle id='N_W_182' type='standard_car' route='N_W' depart='518.0' departLane='random' departSpeed='10' />
    <vehicle id='W_E_183' type='standard_car' route='W_E' depart='521.0' departLane='random' departSpeed='10' />
    <vehicle id='N_S_184' type='standard_car' route='N_S' depart='523.0' departLane='random' departSpeed='10' />
    <vehicle id='E_N_185' type='standard_car' route='E_N' depart='524.0' departLane='random' departSpeed='10' />
    <vehicle id='W_E_186' type='standard_car' route='W_E' depart='525.0' departLane='random' departSpeed='10' />
    <vehicle id='N_W_187' type='standard_car' route='N_W' depart='525.0' departLane='random' departSpeed='10' />
    <vehicle id='W_S_188' type='standard_car' route='W_S' depart='527.0' departLane='random' departSpeed='10' />
    <vehicle id='W_E_189' type='standard_car' route='W_E' depart='527.0' departLane='random' departSpeed='10' />
    <vehicle id='E_W_190' type='standard_car' route='E_W' depart='528.0' departLane='random' departSpeed='10' />
    <vehicle id='S_E_191' type='standard_car' route='S_E' depart='530.0' departLane='random' departSpeed='10' />
    <vehicle id='N_W_192' type='standard_car' route='N_W' depart='530.0' departLane='random' departSpeed='10' />
    <vehicle id='W_E_193' type='standard_car' route='W_E' depart='533.0' departLane='random' departSpeed='10' />
    <vehicle id='S_N_194' type='standard_car' route='S_N' depart='534.0' departLane='random' departSpeed='10' />
    <vehicle id='N_W_195' type='standard_car' route='N_W' depart='535.0' departLane='random' departSpeed='10' />
    <vehicle id='S_N_196' type='standard_car' route='S_N' depart='536.0' departLane='random' departSpeed='10' />
    <vehicle id='S_N_197' type='standard_car' route='S_N' depart='537.0' departLane='random' departSpeed='10' />
    <vehicle id='N_W_198' type='standard_car' route='N_W' depart='537.0' departLane='random' departSpeed='10' />
    <vehicle id='E_N_199' type='standard_car' route='E_N' depart='540.0' departLane='random' departSpeed='10' />
    <vehicle id='W_S_200' type='standard_car' route='W_S' depart='540.0' departLane='random' departSpeed='10' />
    <vehicle id='S_N_201' type='standard_car' route='S_N' depart='541.0' departLane='random' departSpeed='10' />
    <vehicle id='W_E_202' type='standard_car' route='W_E' depart='543.0' departLane='random' departSpeed='10' />
    <vehicle id='W_E_203' type='standard_car' route='W_E' depart='546.0' departLane='random' departSpeed='10' />
    <vehicle id='E_W_204' type='standard_car' route='E_W' depart='546.0' departLane='random' departSpeed='10' />
    <vehicle id='E_N_205' type='standard_car' route='E_N' depart='550.0' departLane='random' departSpeed='10' />
    <vehicle id='N_S_206' type='standard_car' route='N_S' depart='550.0' departLane='random' departSpeed='10' />
    <vehicle id='S_E_207' type='standard_car' route='S_E' depart='550.0' departLane='random' departSpeed='10' />
    <vehicle id='W_E_208' type='standard_car' route='W_E' depart='551.0' departLane='random' departSpeed='10' />
    <vehicle id='S_E_209' type='standard_car' route='S_E' depart='555.0' departLane='random' departSpeed='10' />
    <vehicle id='E_W_210' type='standard_car' route='E_W' depart='556.0' departLane='random' departSpeed='10' />
    <vehicle id='W_E_211' type='standard_car' route='W_E' depart='556.0' departLane='random' departSpeed='10' />
    <vehicle id='S_N_212' type='standard_car' route='S_N' depart='558.0' departLane='random' departSpeed='10' />
    <vehicle id='E_N_213' type='standard_car' route='E_N' depart='562.0' departLane='random' departSpeed='10' />
    <vehicle id='S_N_214' type='standard_car' route='S_N' depart='562.0' departLane='random' departSpeed='10' />
    <vehicle id='N_W_215' type='standard_car' route='N_W' depart='564.0' departLane='random' departSpeed='10' />
    <vehicle id='E_N_216' type='standard_car' route='E_N' depart='565.0' departLane='random' departSpeed='10' />
    <vehicle id='S_N_217' type='standard_car' route='S_N' depart='565.0' departLane='random' departSpeed='10' />
    <vehicle id='N_S_218' type='standard_car' route='N_S' depart='565.0' departLane='random' departSpeed='10' />
    <vehicle id='N_W_219' type='standard_car' route='N_W' depart='567.0' departLane='random' departSpeed='10' />
    <vehicle id='W_E_220' type='standard_car' route='W_E' depart='569.0' departLane='random' departSpeed='10' />
    <vehicle id='N_S_221' type='standard_car' route='N_S' depart='572.0' departLane='random' departSpeed='10' />
    <vehicle id='S_N_222' type='standard_car' route='S_N' depart='572.0' departLane='random' departSpeed='10' />
    <vehicle id='N_S_223' type='standard_car' route='N_S' depart='574.0' departLane='random' departSpeed='10' />
    <vehicle id='W_E_224' type='standard_car' route='W_E' depart='575.0' departLane='random' departSpeed='10' />
    <vehicle id='E_W_225' type='standard_car' route='E_W' depart='575.0' departLane='random' departSpeed='10' />
    <vehicle id='N_W_226' type='standard_car' route='N_W' depart='575.0' departLane='random' departSpeed='10' />
    <vehicle id='E_N_227' type='standard_car' route='E_N' depart='576.0' departLane='random' departSpeed='10' />
    <vehicle id='N_S_228' type='standard_car' route='N_S' depart='576.0' departLane='random' departSpeed='10' />
    <vehicle id='E_W_229' type='standard_car' route='E_W' depart='580.0' departLane='random' departSpeed='10' />
    <vehicle id='S_N_230' type='standard_car' route='S_N' depart='580.0' departLane='random' departSpeed='10' />
    <vehicle id='E_W_231' type='standard_car' route='E_W' depart='580.0' departLane='random' departSpeed='10' />
    <vehicle id='W_S_232' type='standard_car' route='W_S' depart='583.0' departLane='random' departSpeed='10' />
    <vehicle id='S_E_233' type='standard_car' route='S_E' depart='587.0' departLane='random' departSpeed='10' />
    <vehicle id='N_W_234' type='standard_car' route='N_W' depart='590.0' departLane='random' departSpeed='10' />
    <vehicle id='W_E_235' type='standard_car' route='W_E' depart='591.0' departLane='random' departSpeed='10' />
    <vehicle id='E_N_236' type='standard_car' route='E_N' depart='591.0' departLane='random' departSpeed='10' />
    <vehicle id='W_E_237' type='standard_car' route='W_E' depart='592.0' departLane='random' departSpeed='10' />
    <vehicle id='W_E_238' type='standard_car' route='W_E' depart='595.0' departLane='random' departSpeed='10' />
    <vehicle id='E_W_239' type='standard_car' route='E_W' depart='597.0' departLane='random' departSpeed='10' />
    <vehicle id='S_N_240' type='standard_car' route='S_N' depart='597.0' departLane='random' departSpeed='10' />
    <vehicle id='W_E_241' type='standard_car' route='W_E' depart='597.0' departLane='random' departSpeed='10' />
    <vehicle id='N_S_242' type='standard_car' route='N_S' depart='598.0' departLane='random' departSpeed='10' />
    <vehicle id='N_S_243' type='standard_car' route='N_S' depart='598.0' departLane='random' departSpeed='10' />
    <vehicle id='E_W_244' type='standard_car' route='E_W' depart='598.0' departLane='random' departSpeed='10' />
    <vehicle id='N_W_245' type='standard_car' route='N_W' depart='600.0' departLane='random' departSpeed='10' />
    <vehicle id='E_W_246' type='standard_car' route='E_W' depart='604.0' departLane='random' departSpeed='10' />
    <vehicle id='N_S_247' type='standard_car' route='N_S' depart='604.0' departLane='random' departSpeed='10' />
    <vehicle id='W_S_248' type='standard_car' route='W_S' depart='605.0' departLane='random' departSpeed='10' />
    <vehicle id='W_E_249' type='standard_car' route='W_E' depart='608.0' departLane='random' departSpeed='10' />
    <vehicle id='S_N_250' type='standard_car' route='S_N' depart='608.0' departLane='random' departSpeed='10' />
    <vehicle id='N_W_251' type='standard_car' route='N_W' depart='609.0' departLane='random' departSpeed='10' />
    <vehicle id='N_W_252' type='standard_car' route='N_W' depart='610.0' departLane='random' departSpeed='10' />
    <vehicle id='W_E_253' type='standard_car' route='W_E' depart='611.0' departLane='random' departSpeed='10' />
    <vehicle id='N_W_254' type='standard_car' route='N_W' depart='611.0' departLane='random' departSpeed='10' />
    <vehicle id='N_S_255' type='standard_car' route='N_S' depart='613.0' departLane='random' departSpeed='10' />
    <vehicle id='N_W_256' type='standard_car' route='N_W' depart='614.0' departLane='random' departSpeed='10' />
    <vehicle id='N_S_257' type='standard_car' route='N_S' depart='615.0' departLane='random' departSpeed='10' />
    <vehicle id='W_S_258' type='standard_car' route='W_S' depart='615.0' departLane='random' departSpeed='10' />