<routes>
    <vType id="standard_car" length='5.0' maxSpeed='11.11' minGap='2.5' accel='2.0' decel='4.5' />
<route id='N_S' edges='road_1_2_3 road_1_1_3' />
<route id='N_E' edges='road_1_2_3 road_1_1_0' />
<route id='N_W' edges='road_1_2_3 road_1_1_2' />
<route id='S_N' edges='road_1_0_1 road_1_1_1' />
<route id='S_W' edges='road_1_0_1 road_1_1_2' />
<route id='S_E' edges='road_1_0_1 road_1_1_0' />
<route id='E_W' edges='road_2_1_2 road_1_1_2' />
<route id='E_S' edges='road_2_1_2 road_1_1_3' />
<route id='E_N' edges='road_2_1_2 road_1_1_1' />
<route id='W_E' edges='road_0_1_0 road_1_1_0' />
<route id='W_N' edges='road_0_1_0 road_1_1_1' />
<route id='W_S' edges='road_0_1_0 road_1_1_3' />
<vehicle id='N_S_0' type='standard_car' route='N_S' depart='7' departLane='random' departSpeed='10' />
<vehicle id='N_E_1' type='standard_car' route='N_E' depart='7' departLane='random' departSpeed='10' />
<vehicle id='N_S_2' type='standard_car' route='N_S' depart='8' departLane='random' departSpeed='10' />
<vehicle id='E_W_3' type='standard_car' route='E_W' depart='9' departLane='random' departSpeed='10' />
<vehicle id='S_N_4' type='standard_car' route='S_N' depart='9' departLane='random' departSpeed='10' />
<vehicle id='N_S_5' type='standard_car' route='N_S' depart='10' departLane='random' departSpeed='10' />
<vehicle id='N_S_6' type='standard_car' route='N_S' depart='13' departLane='random' departSpeed='10' />
<vehicle id='S_N_7' type='standard_car' route='S_N' depart='13' departLane='random' departSpeed='10' />
<vehicle id='S_N_8' type='standard_car' route='S_N' depart='14' departLane='random' departSpeed='10' />
<vehicle id='E_W_9' type='standard_car' route='E_W' depart='16' departLane='random' departSpeed='10' />
<vehicle id='S_N_10' type='standard_car' route='S_N' depart='17' departLane='random' departSpeed='10' />
<vehicle id='S_N_11' type='standard_car' route='S_N' depart='22' departLane='random' departSpeed='10' />
<vehicle id='S_N_12' type='standard_car' route='S_N' depart='24' departLane='random' departSpeed='10' />
<vehicle id='S_W_13' type='standard_car' route='S_W' depart='24' departLane='random' departSpeed='10' />
<vehicle id='E_W_14' type='standard_car' route='E_W' depart='28' departLane='random' departSpeed='10' />
<vehicle id='E_W_15' type='standard_car' route='E_W' depart='30' departLane='random' departSpeed='10' />
<vehicle id='N_S_16' type='standard_car' route='N_S' depart='32' departLane='random' departSpeed='10' />
<vehicle id='E_W_17' type='standard_car' route='E_W' depart='33' departLane='random' departSpeed='10' />
<vehicle id='E_S_18' type='standard_car' route='E_S' depart='33' departLane='random' departSpeed='10' />
<vehicle id='E_W_19' type='standard_car' route='E_W' depart='36' departLane='random' departSpeed='10' />
<vehicle id='E_W_20' type='standard_car' route='E_W' depart='37' departLane='random' departSpeed='10' />
<vehicle id='E_S_21' type='standard_car' route='E_S' depart='37' departLane='random' departSpeed='10' />
<vehicle id='E_W_22' type='standard_car' route='E_W' depart='38' departLane='random' departSpeed='10' />
<vehicle id='N_S_23' type='standard_car' route='N_S' depart='41' departLane='random' departSpeed='10' />
<vehicle id='E_W_24' type='standard_car' route='E_W' depart='45' departLane='random' departSpeed='10' />
<vehicle id='S_N_25' type='standard_car' route='S_N' depart='45' departLane='random' departSpeed='10' />
<vehicle id='W_E_26' type='standard_car' route='W_E' depart='49' departLane='random' departSpeed='10' />
<vehicle id='W_N_27' type='standard_car' route='W_N' depart='49' departLane='random' departSpeed='10' />
<vehicle id='W_E_28' type='standard_car' route='W_E' depart='49' departLane='random' departSpeed='10' />
<vehicle id='W_E_29' type='standard_car' route='W_E' depart='50' departLane='random' departSpeed='10' />
<vehicle id='E_W_30' type='standard_car' route='E_W' depart='51' departLane='random' departSpeed='10' />
<vehicle id='E_W_31' type='standard_car' route='E_W' depart='53' departLane='random' departSpeed='10' />
<vehicle id='W_E_32' type='standard_car' route='W_E' depart='53' departLane='random' departSpeed='10' />
<vehicle id='W_N_33' type='standard_car' route='W_N' depart='53' departLane='random' departSpeed='10' />
<vehicle id='E_W_34' type='standard_car' route='E_W' depart='55' departLane='random' departSpeed='10' />
<vehicle id='S_N_35' type='standard_car' route='S_N' depart='56' departLane='random' departSpeed='10' />
<vehicle id='E_W_36' type='standard_car' route='E_W' depart='57' departLane='random' departSpeed='10' />
<vehicle id='W_E_37' type='standard_car' route='W_E' depart='57' departLane='random' departSpeed='10' />
<vehicle id='W_E_38' type='standard_car' route='W_E' depart='62' departLane='random' departSpeed='10' />
<vehicle id='W_N_39' type='standard_car' route='W_N' depart='62' departLane='random' departSpeed='10' />
<vehicle id='S_N_40' type='standard_car' route='S_N' depart='64' departLane='random' departSpeed='10' />
<vehicle id='W_E_41' type='standard_car' route='W_E' depart='65' departLane='random' departSpeed='10' />
<vehicle id='W_E_42' type='standard_car' route='W_E' depart='65' departLane='random' departSpeed='10' />
<vehicle id='W_N_43' type='standard_car' route='W_N' depart='65' departLane='random' departSpeed='10' />
<vehicle id='W_E_44' type='standard_car' route='W_E' depart='65' departLane='random' departSpeed='10' />
<vehicle id='E_W_45' type='standard_car' route='E_W' depart='70' departLane='random' departSpeed='10' />
<vehicle id='W_E_46' type='standard_car' route='W_E' depart='71' departLane='random' departSpeed='10' />
<vehicle id='W_E_47' type='standard_car' route='W_E' depart='73' departLane='random' departSpeed='10' />
<vehicle id='W_E_48' type='standard_car' route='W_E' depart='73' departLane='random' departSpeed='10' />
<vehicle id='E_W_49' type='standard_car' route='E_W' depart='74' departLane='random' departSpeed='10' />
<vehicle id='E_S_50' type='standard_car' route='E_S' depart='74' departLane='random' departSpeed='10' />
<vehicle id='E_W_51' type='standard_car' route='E_W' depart='75' departLane='random' departSpeed='10' />
<vehicle id='E_W_52' type='standard_car' route='E_W' depart='77' departLane='random' departSpeed='10' />
<vehicle id='W_E_53' type='standard_car' route='W_E' depart='77' departLane='random' departSpeed='10' />
<vehicle id='W_E_54' type='standard_car' route='W_E' depart='77' departLane='random' departSpeed='10' />
<vehicle id='E_W_55' type='standard_car' route='E_W' depart='78' departLane='random' departSpeed='10' />
<vehicle id='W_E_56' type='standard_car' route='W_E' depart='80' departLane='random' departSpeed='10' />
<vehicle id='W_E_57' type='standard_car' route='W_E' depart='81' departLane='random' departSpeed='10' />
<vehicle id='E_W_58' type='standard_car' route='E_W' depart='81' departLane='random' departSpeed='10' />
<vehicle id='W_E_59' type='standard_car' route='W_E' depart='82' departLane='random' departSpeed='10' />
<vehicle id='W_E_60' type='standard_car' route='W_E' depart='89' departLane='random' departSpeed='10' />
<vehicle id='E_W_61' type='standard_car' route='E_W' depart='93' departLane='random' departSpeed='10' />
<vehicle id='W_E_62' type='standard_car' route='W_E' depart='94' departLane='random' departSpeed='10' />
<vehicle id='E_W_63' type='standard_car' route='E_W' depart='95' departLane='random' departSpeed='10' />
<vehicle id='E_W_64' type='standard_car' route='E_W' depart='96' departLane='random' departSpeed='10' />
<vehicle id='W_E_65' type='standard_car' route='W_E' depart='97' departLane='random' departSpeed='10' />
<vehicle id='W_E_66' type='standard_car' route='W_E' depart='98' departLane='random' departSpeed='10' />
<vehicle id='E_W_67' type='standard_car' route='E_W' depart='100' departLane='random' departSpeed='10' />
<vehicle id='E_W_68' type='standard_car' route='E_W' depart='100' departLane='random' departSpeed='10' />
<vehicle id='E_W_69' type='standard_car' route='E_W' depart='103' departLane='random' departSpeed='10' />
<vehicle id='W_E_70' type='standard_car' route='W_E' depart='104' departLane='random' departSpeed='10' />
<vehicle id='W_N_71' type='standard_car' route='W_N' depart='104' departLane='random' departSpeed='10' />
<vehicle id='W_E_72' type='standard_car' route='W_E' depart='105' departLane='random' departSpeed='10' />
<vehicle id='W_E_73' type='standard_car' route='W_E' depart='105' departLane='random' departSpeed='10' />
<vehicle id='W_E_74' type='standard_car' route='W_E' depart='106' departLane='random' departSpeed='10' />
<vehicle id='E_W_75' type='standard_car' route='E_W' depart='109' departLane='random' departSpeed='10' />
<vehicle id='W_E_76' type='standard_car' route='W_E' depart='109' departLane='random' departSpeed='10' />
<vehicle id='E_W_77' type='standard_car' route='E_W' depart='110' departLane='random' departSpeed='10' />
<vehicle id='E_S_78' type='standard_car' route='E_S' depart='110' departLane='random' departSpeed='10' />
<vehicle id='E_W_79' type='standard_car' route='E_W' depart='110' departLane='random' departSpeed='10' />
<vehicle id='E_W_80' type='standard_car' route='E_W' depart='112' departLane='random' departSpeed='10' />
<vehicle id='E_S_81' type='standard_car' route='E_S' depart='112' departLane='random' departSpeed='10' />
<vehicle id='E_W_82' type='standard_car' route='E_W' depart='112' departLane='random' departSpeed='10' />
<vehicle id='W_E_83' type='standard_car' route='W_E' depart='113' departLane='random' departSpeed='10' />
<vehicle id='E_W_84' type='standard_car' route='E_W' depart='113' departLane='random' departSpeed='10' />
<vehicle id='E_W_85' type='standard_car' route='E_W' depart='114' departLane='random' departSpeed='10' />
<vehicle id='E_W_86' type='standard_car' route='E_W' depart='116' departLane='random' departSpeed='10' />
<vehicle id='W_E_87' type='standard_car' route='W_E' depart='119' departLane='random' departSpeed='10' />
<vehicle id='S_N_88' type='standard_car' route='S_N' depart='130' departLane='random' departSpeed='10' />
<vehicle id='W_E_89' type='standard_car' route='W_E' depart='132' departLane='random' departSpeed='10' />
<vehicle id='W_E_90' type='standard_car' route='W_E' depart='134' departLane='random' departSpeed='10' />
<vehicle id='W_N_91' type='standard_car' route='W_N' depart='134' departLane='random' departSpeed='10' />
<vehicle id='W_E_92' type='standard_car' route='W_E' depart='135' departLane='random' departSpeed='10' />
<vehicle id='E_W_93' type='standard_car' route='E_W' depart='136' departLane='random' departSpeed='10' />
<vehicle id='W_E_94' type='standard_car' route='W_E' depart='136' departLane='random' departSpeed='10' />
<vehicle id='W_E_95' type='standard_car' route='W_E' depart='138' departLane='random' departSpeed='10' />
<vehicle id='N_S_96' type='standard_car' route='N_S' depart='142' departLane='random' departSpeed='10' />
<vehicle id='S_N_97' type='standard_car' route='S_N' depart='151' departLane='random' departSpeed='10' />
<vehicle id='N_S_98' type='standard_car' route='N_S' depart='157' departLane='random' departSpeed='10' />
<vehicle id='S_N_99' type='standard_car' route='S_N' depart='158' departLane='random' departSpeed='10' />
<vehicle id='S_N_100' type='standard_car' route='S_N' depart='162' departLane='random' departSpeed='10' />
<vehicle id='S_W_101' type='standard_car' route='S_W' depart='162' departLane='random' departSpeed='10' />
<vehicle id='S_N_102' type='standard_car' route='S_N' depart='165' departLane='random' departSpeed='10' />
<vehicle id='N_S_103' type='standard_car' route='N_S' depart='165' departLane='random' departSpeed='10' />
<vehicle id='N_S_104' type='standard_car' route='N_S' depart='177' departLane='random' departSpeed='10' />
<vehicle id='S_N_105' type='standard_car' route='S_N' depart='188' departLane='random' departSpeed='10' />
<vehicle id='S_N_106' type='standard_car' route='S_N' depart='191' departLane='random' departSpeed='10' />
<vehicle id='E_W_107' type='standard_car' route='E_W' depart='196' departLane='random' departSpeed='10' />
<vehicle id='S_N_108' type='standard_car' route='S_N' depart='197' departLane='random' departSpeed='10' />
<vehicle id='E_W_109' type='standard_car' route='E_W' depart='198' departLane='random' departSpeed='10' />
<vehicle id='E_W_110' type='standard_car' route='E_W' depart='199' departLane='random' departSpeed='10' />
<vehicle id='E_W_111' type='standard_car' route='E_W' depart='201' departLane='random' departSpeed='10' />
<vehicle id='S_N_112' type='standard_car' route='S_N' depart='202' departLane='random' departSpeed='10' />
<vehicle id='N_S_113' type='standard_car' route='N_S' depart='203' departLane='random' departSpeed='10' />
<vehicle id='S_N_114' type='standard_car' route='S_N' depart='209' departLane='random' departSpeed='10' />
<vehicle id='S_N_115' type='standard_car' route='S_N' depart='214' departLane='random' departSpeed='10' />
<vehicle id='S_W_116' type='standard_car' route='S_W' depart='214' departLane='random' departSpeed='10' />
<vehicle id='E_W_117' type='standard_car' route='E_W' depart='215' departLane='random' departSpeed='10' />
<vehicle id='S_N_118' type='standard_car' route='S_N' depart='216' departLane='random' departSpeed='10' />
<vehicle id='S_W_119' type='standard_car' route='S_W' depart='216' departLane='random' departSpeed='10' />
<vehicle id='E_W_120' type='standard_car' route='E_W' depart='219' departLane='random' departSpeed='10' />
<vehicle id='W_E_121' type='standard_car' route='W_E' depart='221' departLane='random' departSpeed='10' />
<vehicle id='W_N_122' type='standard_car' route='W_N' depart='221' departLane='random' departSpeed='10' />
<vehicle id='N_S_123' type='standard_car' route='N_S' depart='226' departLane='random' departSpeed='10' />
<vehicle id='E_W_124' type='standard_car' route='E_W' depart='227' departLane='random' departSpeed='10' />
<vehicle id='E_W_125' type='standard_car' route='E_W' depart='230' departLane='random' departSpeed='10' />
<vehicle id='E_S_126' type='standard_car' route='E_S' depart='230' departLane='random' departSpeed='10' />
<vehicle id='E_W_127' type='standard_car' route='E_W' depart='232' departLane='random' departSpeed='10' />
<vehicle id='E_W_128' type='standard_car' route='E_W' depart='232' departLane='random' departSpeed='10' />
<vehicle id='W_E_129' type='standard_car' route='W_E' depart='234' departLane='random' departSpeed='10' />
<vehicle id='E_W_130' type='standard_car' route='E_W' depart='235' departLane='random' departSpeed='10' />
<vehicle id='E_S_131' type='standard_car' route='E_S' depart='235' departLane='random' departSpeed='10' />
<vehicle id='W_E_132' type='standard_car' route='W_E' depart='236' departLane='random' departSpeed='10' />
<vehicle id='W_N_133' type='standard_car' route='W_N' depart='236' departLane='random' departSpeed='10' />
<vehicle id='S_N_134' type='standard_car' route='S_N' depart='241' departLane='random' departSpeed='10' />
<vehicle id='E_W_135' type='standard_car' route='E_W' depart='241' departLane='random' departSpeed='10' />
<vehicle id='S_N_136' type='standard_car' route='S_N' depart='244' departLane='random' departSpeed='10' />
<vehicle id='E_W_137' type='standard_car' route='E_W' depart='244' departLane='random' departSpeed='10' />
<vehicle id='W_E_138' type='standard_car' route='W_E' depart='245' departLane='random' departSpeed='10' />
<vehicle id='W_E_139' type='standard_car' route='W_E' depart='246' departLane='random' departSpeed='10' />
<vehicle id='W_N_140' type='standard_car' route='W_N' depart='246' departLane='random' departSpeed='10' />
<vehicle id='E_W_141' type='standard_car' route='E_W' depart='247' departLane='random' departSpeed='10' />
<vehicle id='E_S_142' type='standard_car' route='E_S' depart='247' departLane='random' departSpeed='10' />
<vehicle id='S_N_143' type='standard_car' route='S_N' depart='248' departLane='random' departSpeed='10' />
<vehicle id='W_E_144' type='standard_car' route='W_E' depart='248' departLane='random' departSpeed='10' />
<vehicle id='E_W_145' type='standard_car' route='E_W' depart='251' departLane='random' departSpeed='10' />
<vehicle id='W_E_146' type='standard_car' route='W_E' depart='252' departLane='random' departSpeed='10' />
<vehicle id='W_E_147' type='standard_car' route='W_E' depart='253' departLane='random' departSpeed='10' />
<vehicle id='W_E_148' type='standard_car' route='W_E' depart='253' departLane='random' departSpeed='10' />
<vehicle id='W_E_149' type='standard_car' route='W_E' depart='256' departLane='random' departSpeed='10' />
<vehicle id='E_W_150' type='standard_car' route='E_W' depart='256' departLane='random' departSpeed='10' />
<vehicle id='W_E_151' type='standard_car' route='W_E' depart='257' departLane='random' departSpeed='10' />
<vehicle id='E_W_152' type='standard_car' route='E_W' depart='260' departLane='random' departSpeed='10' />
<vehicle id='W_E_153' type='standard_car' route='W_E' depart='261' departLane='random' departSpeed='10' />
<vehicle id='W_E_154' type='standard_car' route='W_E' depart='262' departLane='random' departSpeed='10' />
<vehicle id='W_E_155' type='standard_car' route='W_E' depart='264' departLane='random' departSpeed='10' />
<vehicle id='W_E_156' type='standard_car' route='W_E' depart='265' departLane='random' departSpeed='10' />
<vehicle id='W_E_157' type='standard_car' route='W_E' depart='266' departLane='random' departSpeed='10' />
<vehicle id='W_E_158' type='standard_car' route='W_E' depart='268' departLane='random' departSpeed='10' />
<vehicle id='E_W_159' type='standard_car' route='E_W' depart='269' departLane='random' departSpeed='10' />
<vehicle id='E_W_160' type='standard_car' route='E_W' depart='269' departLane='random' departSpeed='10' />
<vehicle id='W_E_161' type='standard_car' route='W_E' depart='269' departLane='random' departSpeed='10' />
<vehicle id='W_N_162' type='standard_car' route='W_N' depart='269' departLane='random' departSpeed='10' />
<vehicle id='E_W_163' type='standard_car' route='E_W' depart='270' departLane='random' departSpeed='10' />
<vehicle id='E_W_164' type='standard_car' route='E_W' depart='271' departLane='random' departSpeed='10' />
<vehicle id='E_W_165' type='standard_car' route='E_W' depart='271' departLane='random' departSpeed='10' />
<vehicle id='E_W_166' type='standard_car' route='E_W' depart='272' departLane='random' departSpeed='10' />
<vehicle id='E_W_167' type='standard_car' route='E_W' depart='274' departLane='random' departSpeed='10' />
<vehicle id='W_E_168' type='standard_car' route='W_E' depart='274' departLane='random' departSpeed='10' />
<vehicle id='W_E_169' type='standard_car' route='W_E' depart='275' departLane='random' departSpeed='10' />
<vehicle id='E_W_170' type='standard_car' route='E_W' depart='275' departLane='random' departSpeed='10' />
<vehicle id='W_E_171' type='standard_car' route='W_E' depart='277' departLane='random' departSpeed='10' />
<vehicle id='E_W_172' type='standard_car' route='E_W' depart='277' departLane='random' departSpeed='10' />
<vehicle id='W_E_173' type='standard_car' route='W_E' depart='281' departLane='random' departSpeed='10' />
<vehicle id='E_W_174' type='standard_car' route='E_W' depart='283' departLane='random' departSpeed='10' />
<vehicle id='E_W_175' type='standard_car' route='E_W' depart='284' departLane='random' departSpeed='10' />
<vehicle id='W_E_176' type='standard_car' route='W_E' depart='286' departLane='random' departSpeed='10' />
<vehicle id='W_N_177' type='standard_car' route='W_N' depart='286' departLane='random' departSpeed='10' />
<vehicle id='E_W_178' type='standard_car' route='E_W' depart='286' departLane='random' departSpeed='10' />
<vehicle id='E_S_179' type='standard_car' route='E_S' depart='286' departLane='random' departSpeed='10' />
<vehicle id='N_S_180' type='standard_car' route='N_S' depart='287' departLane='random' departSpeed='10' />
<vehicle id='E_W_181' type='standard_car' route='E_W' depart='287' departLane='random' departSpeed='10' />
<vehicle id='E_S_182' type='standard_car' route='E_S' depart='287' departLane='random' departSpeed='10' />
<vehicle id='W_E_183' type='standard_car' route='W_E' depart='289' departLane='random' departSpeed='10' />
<vehicle id='E_W_184' type='standard_car' route='E_W' depart='290' departLane='random' departSpeed='10' />
<vehicle id='E_S_185' type='standard_car' route='E_S' depart='290' departLane='random' departSpeed='10' />
<vehicle id='W_E_186' type='standard_car' route='W_E' depart='302' departLane='random' departSpeed='10' />
<vehicle id='W_N_187' type='standard_car' route='W_N' depart='302' departLane='random' departSpeed='10' />
<vehicle id='N_S_188' type='standard_car' route='N_S' depart='302' departLane='random' departSpeed='10' />
<vehicle id='N_E_189' type='standard_car' route='N_E' depart='302' departLane='random' departSpeed='10' />
<vehicle id='W_E_190' type='standard_car' route='W_E' depart='302' departLane='random' departSpeed='10' />
<vehicle id='E_W_191' type='standard_car' route='E_W' depart='307' departLane='random' departSpeed='10' />
<vehicle id='S_N_192' type='standard_car' route='S_N' depart='307' departLane='random' departSpeed='10' />
<vehicle id='W_E_193' type='standard_car' route='W_E' depart='312' departLane='random' departSpeed='10' />
<vehicle id='S_N_194' type='standard_car' route='S_N' depart='315' departLane='random' departSpeed='10' />
<vehicle id='E_W_195' type='standard_car' route='E_W' depart='317' departLane='random' departSpeed='10' />
<vehicle id='W_E_196' type='standard_car' route='W_E' depart='319' departLane='random' departSpeed='10' />
<vehicle id='W_N_197' type='standard_car' route='W_N' depart='319' departLane='random' departSpeed='10' />
<vehicle id='S_N_198' type='standard_car' route='S_N' depart='333' departLane='random' departSpeed='10' />
<vehicle id='W_E_199' type='standard_car' route='W_E' depart='336' departLane='random' departSpeed='10' />
<vehicle id='E_W_200' type='standard_car' route='E_W' depart='336' departLane='random' departSpeed='10' />
<vehicle id='N_S_201' type='standard_car' route='N_S' depart='340' departLane='random' departSpeed='10' />
<vehicle id='N_E_202' type='standard_car' route='N_E' depart='340' departLane='random' departSpeed='10' />
<vehicle id='S_N_203' type='standard_car' route='S_N' depart='343' departLane='random' departSpeed='10' />
<vehicle id='N_S_204' type='standard_car' route='N_S' depart='345' departLane='random' departSpeed='10' />
<vehicle id='S_N_205' type='standard_car' route='S_N' depart='352' departLane='random' departSpeed='10' />
<vehicle id='S_N_206' type='standard_car' route='S_N' depart='358' departLane='random' departSpeed='10' />
<vehicle id='S_N_207' type='standard_car' route='S_N' depart='360' departLane='random' departSpeed='10' />
<vehicle id='N_S_208' type='standard_car' route='N_S' depart='362' departLane='random' departSpeed='10' />
<vehicle id='N_S_209' type='standard_car' route='N_S' depart='363' departLane='random' departSpeed='10' />
<vehicle id='E_W_210' type='standard_car' route='E_W' depart='364' departLane='random' departSpeed='10' />
<vehicle id='S_N_211' type='standard_car' route='S_N' depart='365' departLane='random' departSpeed='10' />
<vehicle id='S_W_212' type='standard_car' route='S_W' depart='365' departLane='random' departSpeed='10' />
<vehicle id='N_S_213' type='standard_car' route='N_S' depart='366' departLane='random' departSpeed='10' />
<vehicle id='S_N_214' type='standard_car' route='S_N' depart='367' departLane='random' departSpeed='10' />
<vehicle id='N_S_215' type='standard_car' route='N_S' depart='367' departLane='random' departSpeed='10' />
<vehicle id='S_N_216' type='standard_car' route='S_N' depart='369' departLane='random' departSpeed='10' />
<vehicle id='N_S_217' type='standard_car' route='N_S' depart='369' departLane='random' departSpeed='10' />
<vehicle id='N_S_218' type='standard_car' route='N_S' depart='371' departLane='random' departSpeed='10' />
<vehicle id='S_N_219' type='standard_car' route='S_N' depart='377' departLane='random' departSpeed='10' />
<vehicle id='E_W_220' type='standard_car' route='E_W' depart='380' departLane='random' departSpeed='10' />
<vehicle id='N_S_221' type='standard_car' route='N_S' depart='381' departLane='random' departSpeed='10' />
<vehicle id='N_S_222' type='standard_car' route='N_S' depart='381' departLane='random' departSpeed='10' />
<vehicle id='S_N_223' type='standard_car' route='S_N' depart='381' departLane='random' departSpeed='10' />
<vehicle id='S_W_224' type='standard_car' route='S_W' depart='381' departLane='random' departSpeed='10' />
<vehicle id='N_S_225' type='standard_car' route='N_S' depart='383' departLane='random' departSpeed='10' />
<vehicle id='E_W_226' type='standard_car' route='E_W' depart='383' departLane='random' departSpeed='10' />
<vehicle id='S_N_227' type='standard_car' route='S_N' depart='386' departLane='random' departSpeed='10' />
<vehicle id='S_W_228' type='standard_car' route='S_W' depart='386' departLane='random' departSpeed='10' />
<vehicle id='E_W_229' type='standard_car' route='E_W' depart='387' departLane='random' departSpeed='10' />
<vehicle id='E_S_230' type='standard_car' route='E_S' depart='387' departLane='random' departSpeed='10' />
<vehicle id='S_N_231' type='standard_car' route='S_N' depart='390' departLane='random' departSpeed='10' />
<vehicle id='S_W_232' type='standard_car' route='S_W' depart='390' departLane='random' departSpeed='10' />
<vehicle id='E_W_233' type='standard_car' route='E_W' depart='392' departLane='random' departSpeed='10' />
<vehicle id='E_W_234' type='standard_car' route='E_W' depart='393' departLane='random' departSpeed='10' />
<vehicle id='E_W_235' type='standard_car' route='E_W' depart='393' departLane='random' departSpeed='10' />
<vehicle id='S_N_236' type='standard_car' route='S_N' depart='394' departLane='random' departSpeed='10' />
<vehicle id='S_N_237' type='standard_car' route='S_N' depart='395' departLane='random' departSpeed='10' />
<vehicle id='N_S_238' type='standard_car' route='N_S' depart='396' departLane='random' departSpeed='10' />
<vehicle id='N_E_239' type='standard_car' route='N_E' depart='396' departLane='random' departSpeed='10' />
<vehicle id='S_N_240' type='standard_car' route='S_N' depart='399' departLane='random' departSpeed='10' />
<vehicle id='E_W_241' type='standard_car' route='E_W' depart='403' departLane='random' departSpeed='10' />
<vehicle id='E_W_242' type='standard_car' route='E_W' depart='406' departLane='random' departSpeed='10' />
<vehicle id='E_S_243' type='standard_car' route='E_S' depart='406' departLane='random' departSpeed='10' />
<vehicle id='S_N_244' type='standard_car' route='S_N' depart='406' departLane='random' departSpeed='10' />
<vehicle id='W_E_245' type='standard_car' route='W_E' depart='407' departLane='random' departSpeed='10' />
<vehicle id='E_W_246' type='standard_car' route='E_W' depart='409' departLane='random' departSpeed='10' />
<vehicle id='E_W_247' type='standard_car' route='E_W' depart='409' departLane='random' departSpeed='10' />
<vehicle id='E_S_248' type='standard_car' route='E_S' depart='409' departLane='random' departSpeed='10' />
<vehicle id='S_N_249' type='standard_car' route='S_N' depart='412' departLane='random' departSpeed='10' />
<vehicle id='W_E_250' type='standard_car' route='W_E' depart='416' departLane='random' departSpeed='10' />
<vehicle id='E_W_251' type='standard_car' route='E_W' depart='417' departLane='random' departSpeed='10' />
<vehicle id='E_W_252' type='standard_car' route='E_W' depart='417' departLane='random' departSpeed='10' />
<vehicle id='W_E_253' type='standard_car' route='W_E' depart='420' departLane='random' departSpeed='10' />
<vehicle id='S_N_254' type='standard_car' route='S_N' depart='420' departLane='random' departSpeed='10' />
<vehicle id='S_W_255' type='standard_car' route='S_W' depart='420' departLane='random' departSpeed='10' />
<vehicle id='W_E_256' type='standard_car' route='W_E' depart='422' departLane='random' departSpeed='10' />
<vehicle id='W_E_257' type='standard_car' route='W_E' depart='424' departLane='random' departSpeed='10' />
<vehicle id='E_W_258' type='standard_car' route='E_W' depart='424' departLane='random' departSpeed='10' />
<vehicle id='E_S_259' type='standard_car' route='E_S' depart='424' departLane='random' departSpeed='10' />
<vehicle id='E_W_260' type='standard_car' route='E_W' depart='425' departLane='random' departSpeed='10' />
<vehicle id='E_W_261' type='standard_car' route='E_W' depart='427' departLane='random' departSpeed='10' />
<vehicle id='W_E_262' type='standard_car' route='W_E' depart='429' departLane='random' departSpeed='10' />
<vehicle id='W_E_263' type='standard_car' route='W_E' depart='431' departLane='random' departSpeed='10' />
<vehicle id='E_W_264' type='standard_car' route='E_W' depart='431' departLane='random' departSpeed='10' />
<vehicle id='W_E_265' type='standard_car' route='W_E' depart='432' departLane='random' departSpeed='10' />
<vehicle id='E_W_266' type='standard_car' route='E_W' depart='434' departLane='random' departSpeed='10' />
<vehicle id='E_S_267' type='standard_car' route='E_S' depart='434' departLane='random' departSpeed='10' />
<vehicle id='E_W_268' type='standard_car' route='E_W' depart='436' departLane='random' departSpeed='10' />
<vehicle id='W_E_269' type='standard_car' route='W_E' depart='437' departLane='random' departSpeed='10' />
<vehicle id='W_E_270' type='standard_car' route='W_E' depart='437' departLane='random' departSpeed='10' />
<vehicle id='W_N_271' type='standard_car' route='W_N' depart='437' departLane='random' departSpeed='10' />
<vehicle id='E_W_272' type='standard_car' route='E_W' depart='438' departLane='random' departSpeed='10' />
<vehicle id='E_W_273' type='standard_car' route='E_W' depart='439' departLane='random' departSpeed='10' />
<vehicle id='E_W_274' type='standard_car' route='E_W' depart='444' departLane='random' departSpeed='10' />