<routes>
    <vType id="standard_car" length='5.0' maxSpeed='11.11' minGap='2.5' accel='2.0' decel='4.5' />
<route id='N_S' edges='road_1_2_3 road_1_1_3' />
<route id='N_E' edges='road_1_2_3 road_1_1_0' />
<route id='N_W' edges='road_1_2_3 road_1_1_2' />
<route id='S_N' edges='road_1_0_1 road_1_1_1' />
<route id='S_W' edges='road_1_0_1 road_1_1_2' />
<route id='S_E' edges='road_1_0_1 road_1_1_0' />
<route id='E_W' edges='road_2_1_2 road_1_1_2' />
<route id='E_S' edges='road_2_1_2 road_1_1_3' />
<route id='E_N' edges='road_2_1_2 road_1_1_1' />
<route id='W_E' edges='road_0_1_0 road_1_1_0' />
<route id='W_N' edges='road_0_1_0 road_1_1_1' />
<route id='W_S' edges='road_0_1_0 road_1_1_3' />
<vehicle id='E_W_0' type='standard_car' route='E_W' depart='2' departLane='random' departSpeed='10' />
<vehicle id='W_E_1' type='standard_car' route='W_E' depart='7' departLane='random' departSpeed='10' />
<vehicle id='S_N_2' type='standard_car' route='S_N' depart='22' departLane='random' departSpeed='10' />
<vehicle id='S_N_3' type='standard_car' route='S_N' depart='24' departLane='random' departSpeed='10' />
<vehicle id='S_W_4' type='standard_car' route='S_W' depart='24' departLane='random' departSpeed='10' />
<vehicle id='E_W_5' type='standard_car' route='E_W' depart='24' departLane='random' departSpeed='10' />
<vehicle id='W_E_6' type='standard_car' route='W_E' depart='25' departLane='random' departSpeed='10' />
<vehicle id='W_E_7' type='standard_car' route='W_E' depart='27' departLane='random' departSpeed='10' />
<vehicle id='W_E_8' type='standard_car' route='W_E' depart='29' departLane='random' departSpeed='10' />
<vehicle id='S_N_9' type='standard_car' route='S_N' depart='36' departLane='random' departSpeed='10' />
<vehicle id='S_W_10' type='standard_car' route='S_W' depart='36' departLane='random' departSpeed='10' />
<vehicle id='S_N_11' type='standard_car' route='S_N' depart='57' departLane='random' departSpeed='10' />
<vehicle id='W_E_12' type='standard_car' route='W_E' depart='57' departLane='random' departSpeed='10' />
<vehicle id='N_S_13' type='standard_car' route='N_S' depart='68' departLane='random' departSpeed='10' />
<vehicle id='S_N_14' type='standard_car' route='S_N' depart='75' departLane='random' departSpeed='10' />
<vehicle id='S_N_15' type='standard_car' route='S_N' depart='83' departLane='random' departSpeed='10' />
<vehicle id='S_N_16' type='standard_car' route='S_N' depart='87' departLane='random' departSpeed='10' />
<vehicle id='S_N_17' type='standard_car' route='S_N' depart='92' departLane='random' departSpeed='10' />
<vehicle id='S_W_18' type='standard_car' route='S_W' depart='92' departLane='random' departSpeed='10' />
<vehicle id='S_N_19' type='standard_car' route='S_N' depart='95' departLane='random' departSpeed='10' />
<vehicle id='S_N_20' type='standard_car' route='S_N' depart='95' departLane='random' departSpeed='10' />
<vehicle id='W_E_21' type='standard_car' route='W_E' depart='113' departLane='random' departSpeed='10' />
<vehicle id='E_W_22' type='standard_car' route='E_W' depart='115' departLane='random' departSpeed='10' />
<vehicle id='E_W_23' type='standard_car' route='E_W' depart='117' departLane='random' departSpeed='10' />
<vehicle id='E_W_24' type='standard_car' route='E_W' depart='121' departLane='random' departSpeed='10' />
<vehicle id='E_W_25' type='standard_car' route='E_W' depart='126' departLane='random' departSpeed='10' />
<vehicle id='E_W_26' type='standard_car' route='E_W' depart='134' departLane='random' departSpeed='10' />
<vehicle id='E_S_27' type='standard_car' route='E_S' depart='134' departLane='random' departSpeed='10' />
<vehicle id='S_N_28' type='standard_car' route='S_N' depart='138' departLane='random' departSpeed='10' />
<vehicle id='S_N_29' type='standard_car' route='S_N' depart='153' departLane='random' departSpeed='10' />
<vehicle id='S_W_30' type='standard_car' route='S_W' depart='153' departLane='random' departSpeed='10' />
<vehicle id='S_N_31' type='standard_car' route='S_N' depart='165' departLane='random' departSpeed='10' />
<vehicle id='N_S_32' type='standard_car' route='N_S' depart='177' departLane='random' departSpeed='10' />
<vehicle id='N_S_33' type='standard_car' route='N_S' depart='181' departLane='random' departSpeed='10' />
<vehicle id='S_N_34' type='standard_car' route='S_N' depart='185' departLane='random' departSpeed='10' />
<vehicle id='S_N_35' type='standard_car' route='S_N' depart='188' departLane='random' departSpeed='10' />
<vehicle id='S_W_36' type='standard_car' route='S_W' depart='188' departLane='random' departSpeed='10' />
<vehicle id='S_N_37' type='standard_car' route='S_N' depart='239' departLane='random' departSpeed='10' />
<vehicle id='E_W_38' type='standard_car' route='E_W' depart='241' departLane='random' departSpeed='10' />
<vehicle id='E_W_39' type='standard_car' route='E_W' depart='253' departLane='random' departSpeed='10' />
<vehicle id='S_N_40' type='standard_car' route='S_N' depart='254' departLane='random' departSpeed='10' />
<vehicle id='N_S_41' type='standard_car' route='N_S' depart='255' departLane='random' departSpeed='10' />
<vehicle id='S_N_42' type='standard_car' route='S_N' depart='260' departLane='random' departSpeed='10' />
<vehicle id='S_W_43' type='standard_car' route='S_W' depart='260' departLane='random' departSpeed='10' />
<vehicle id='S_N_44' type='standard_car' route='S_N' depart='263' departLane='random' departSpeed='10' />
<vehicle id='S_N_45' type='standard_car' route='S_N' depart='263' departLane='random' departSpeed='10' />
<vehicle id='S_W_46' type='standard_car' route='S_W' depart='263' departLane='random' departSpeed='10' />
<vehicle id='S_N_47' type='standard_car' route='S_N' depart='265' departLane='random' departSpeed='10' />
<vehicle id='E_W_48' type='standard_car' route='E_W' depart='266' departLane='random' departSpeed='10' />
<vehicle id='N_S_49' type='standard_car' route='N_S' depart='267' departLane='random' departSpeed='10' />
<vehicle id='N_E_50' type='standard_car' route='N_E' depart='267' departLane='random' departSpeed='10' />
<vehicle id='N_S_51' type='standard_car' route='N_S' depart='275' departLane='random' departSpeed='10' />
<vehicle id='W_E_52' type='standard_car' route='W_E' depart='277' departLane='random' departSpeed='10' />
<vehicle id='W_N_53' type='standard_car' route='W_N' depart='277' departLane='random' departSpeed='10' />
<vehicle id='S_N_54' type='standard_car' route='S_N' depart='279' departLane='random' departSpeed='10' />
<vehicle id='N_S_55' type='standard_car' route='N_S' depart='279' departLane='random' departSpeed='10' />
<vehicle id='S_N_56' type='standard_car' route='S_N' depart='296' departLane='random' departSpeed='10' />
<vehicle id='E_W_57' type='standard_car' route='E_W' depart='298' departLane='random' departSpeed='10' />
<vehicle id='S_N_58' type='standard_car' route='S_N' depart='300' departLane='random' departSpeed='10' />
<vehicle id='S_N_59' type='standard_car' route='S_N' depart='301' departLane='random' departSpeed='10' />
<vehicle id='E_W_60' type='standard_car' route='E_W' depart='302' departLane='random' departSpeed='10' />
<vehicle id='W_E_61' type='standard_car' route='W_E' depart='303' departLane='random' departSpeed='10' />
<vehicle id='S_N_62' type='standard_car' route='S_N' depart='307' departLane='random' departSpeed='10' />
<vehicle id='E_W_63' type='standard_car' route='E_W' depart='328' departLane='random' departSpeed='10' />
<vehicle id='E_S_64' type='standard_car' route='E_S' depart='328' departLane='random' departSpeed='10' />
<vehicle id='N_S_65' type='standard_car' route='N_S' depart='335' departLane='random' departSpeed='10' />
<vehicle id='W_E_66' type='standard_car' route='W_E' depart='337' departLane='random' departSpeed='10' />
<vehicle id='E_W_67' type='standard_car' route='E_W' depart='349' departLane='random' departSpeed='10' />
<vehicle id='S_N_68' type='standard_car' route='S_N' depart='352' departLane='random' departSpeed='10' />
<vehicle id='S_N_69' type='standard_car' route='S_N' depart='364' departLane='random' departSpeed='10' />
<vehicle id='S_N_70' type='standard_car' route='S_N' depart='372' departLane='random' departSpeed='10' />
<vehicle id='N_S_71' type='standard_car' route='N_S' depart='372' departLane='random' departSpeed='10' />
<vehicle id='N_S_72' type='standard_car' route='N_S' depart='375' departLane='random' departSpeed='10' />
<vehicle id='S_N_73' type='standard_car' route='S_N' depart='378' departLane='random' departSpeed='10' />
<vehicle id='S_W_74' type='standard_car' route='S_W' depart='378' departLane='random' departSpeed='10' />
<vehicle id='S_N_75' type='standard_car' route='S_N' depart='387' departLane='random' departSpeed='10' />
<vehicle id='S_N_76' type='standard_car' route='S_N' depart='388' departLane='random' departSpeed='10' />
<vehicle id='S_N_77' type='standard_car' route='S_N' depart='390' departLane='random' departSpeed='10' />
<vehicle id='S_W_78' type='standard_car' route='S_W' depart='390' departLane='random' departSpeed='10' />
<vehicle id='S_N_79' type='standard_car' route='S_N' depart='397' departLane='random' departSpeed='10' />
<vehicle id='S_N_80' type='standard_car' route='S_N' depart='397' departLane='random' departSpeed='10' />
<vehicle id='N_S_81' type='standard_car' route='N_S' depart='404' departLane='random' departSpeed='10' />
<vehicle id='S_N_82' type='standard_car' route='S_N' depart='421' departLane='random' departSpeed='10' />
<vehicle id='W_E_83' type='standard_car' route='W_E' depart='430' departLane='random' departSpeed='10' />
<vehicle id='S_N_84' type='standard_car' route='S_N' depart='440' departLane='random' departSpeed='10' />
<vehicle id='W_E_85' type='standard_car' route='W_E' depart='445' departLane='random' departSpeed='10' />
<vehicle id='W_E_86' type='standard_car' route='W_E' depart='449' departLane='random' departSpeed='10' />
<vehicle id='E_W_87' type='standard_car' route='E_W' depart='450' departLane='random' departSpeed='10' />
<vehicle id='E_W_88' type='standard_car' route='E_W' depart='455' departLane='random' departSpeed='10' />
<vehicle id='E_W_89' type='standard_car' route='E_W' depart='458' departLane='random' departSpeed='10' />
<vehicle id='E_W_90' type='standard_car' route='E_W' depart='463' departLane='random' departSpeed='10' />
<vehicle id='E_W_91' type='standard_car' route='E_W' depart='466' departLane='random' departSpeed='10' />
<vehicle id='E_S_92' type='standard_car' route='E_S' depart='466' departLane='random' departSpeed='10' />
<vehicle id='S_N_93' type='standard_car' route='S_N' depart='466' departLane='random' departSpeed='10' />
<vehicle id='S_N_94' type='standard_car' route='S_N' depart='467' departLane='random' departSpeed='10' />
<vehicle id='E_W_95' type='standard_car' route='E_W' depart='469' departLane='random' departSpeed='10' />
<vehicle id='S_N_96' type='standard_car' route='S_N' depart='469' departLane='random' departSpeed='10' />
<vehicle id='S_W_97' type='standard_car' route='S_W' depart='469' departLane='random' departSpeed='10' />
<vehicle id='E_W_98' type='standard_car' route='E_W' depart='471' departLane='random' departSpeed='10' />
<vehicle id='S_N_99' type='standard_car' route='S_N' depart='471' departLane='random' departSpeed='10' />
<vehicle id='W_E_100' type='standard_car' route='W_E' depart='473' departLane='random' departSpeed='10' />
<vehicle id='E_W_101' type='standard_car' route='E_W' depart='474' departLane='random' departSpeed='10' />
<vehicle id='S_N_102' type='standard_car' route='S_N' depart='475' departLane='random' departSpeed='10' />
<vehicle id='S_N_103' type='standard_car' route='S_N' depart='478' departLane='random' departSpeed='10' />
<vehicle id='S_N_104' type='standard_car' route='S_N' depart='480' departLane='random' departSpeed='10' />
<vehicle id='S_N_105' type='standard_car' route='S_N' depart='485' departLane='random' departSpeed='10' />
<vehicle id='S_W_106' type='standard_car' route='S_W' depart='485' departLane='random' departSpeed='10' />
<vehicle id='N_S_107' type='standard_car' route='N_S' depart='493' departLane='random' departSpeed='10' />
<vehicle id='S_N_108' type='standard_car' route='S_N' depart='495' departLane='random' departSpeed='10' />
<vehicle id='S_N_109' type='standard_car' route='S_N' depart='497' departLane='random' departSpeed='10' />
<vehicle id='W_E_110' type='standard_car' route='W_E' depart='501' departLane='random' departSpeed='10' />
<vehicle id='S_N_111' type='standard_car' route='S_N' depart='518' departLane='random' departSpeed='10' />
<vehicle id='S_N_112' type='standard_car' route='S_N' depart='523' departLane='random' departSpeed='10' />
<vehicle id='S_N_113' type='standard_car' route='S_N' depart='533' departLane='random' departSpeed='10' />
<vehicle id='S_W_114' type='standard_car' route='S_W' depart='533' departLane='random' departSpeed='10' />
<vehicle id='S_N_115' type='standard_car' route='S_N' depart='534' departLane='random' departSpeed='10' />
<vehicle id='S_N_116' type='standard_car' route='S_N' depart='540' departLane='random' departSpeed='10' />
<vehicle id='E_W_117' type='standard_car' route='E_W' depart='552' departLane='random' departSpeed='10' />
<vehicle id='E_W_118' type='standard_car' route='E_W' depart='567' departLane='random' departSpeed='10' />
<vehicle id='S_N_119' type='standard_car' route='S_N' depart='569' departLane='random' departSpeed='10' />
<vehicle id='E_W_120' type='standard_car' route='E_W' depart='569' departLane='random' departSpeed='10' />
<vehicle id='W_E_121' type='standard_car' route='W_E' depart='575' departLane='random' departSpeed='10' />
<vehicle id='W_E_122' type='standard_car' route='W_E' depart='586' departLane='random' departSpeed='10' />
<vehicle id='S_N_123' type='standard_car' route='S_N' depart='587' departLane='random' departSpeed='10' />
<vehicle id='N_S_124' type='standard_car' route='N_S' depart='588' departLane='random' departSpeed='10' />
<vehicle id='N_S_125' type='standard_car' route='N_S' depart='595' departLane='random' departSpeed='10' />
<vehicle id='N_S_126' type='standard_car' route='N_S' depart='597' departLane='random' departSpeed='10' />
<vehicle id='W_E_127' type='standard_car' route='W_E' depart='597' departLane='random' departSpeed='10' />
<vehicle id='S_N_128' type='standard_car' route='S_N' depart='599' departLane='random' departSpeed='10' />
<vehicle id='N_S_129' type='standard_car' route='N_S' depart='599' departLane='random' departSpeed='10' />
<vehicle id='W_E_130' type='standard_car' route='W_E' depart='608' departLane='random' departSpeed='10' />
<vehicle id='N_S_131' type='standard_car' route='N_S' depart='610' departLane='random' departSpeed='10' />
<vehicle id='N_E_132' type='standard_car' route='N_E' depart='610' departLane='random' departSpeed='10' />
<vehicle id='S_N_133' type='standard_car' route='S_N' depart='612' departLane='random' departSpeed='10' />
<vehicle id='S_N_134' type='standard_car' route='S_N' depart='614' departLane='random' departSpeed='10' />
<vehicle id='N_S_135' type='standard_car' route='N_S' depart='616' departLane='random' departSpeed='10' />
<vehicle id='E_W_136' type='standard_car' route='E_W' depart='617' departLane='random' departSpeed='10' />
<vehicle id='E_S_137' type='standard_car' route='E_S' depart='617' departLane='random' departSpeed='10' />
<vehicle id='S_N_138' type='standard_car' route='S_N' depart='618' departLane='random' departSpeed='10' />
<vehicle id='S_N_139' type='standard_car' route='S_N' depart='624' departLane='random' departSpeed='10' />
<vehicle id='N_S_140' type='standard_car' route='N_S' depart='630' departLane='random' departSpeed='10' />
<vehicle id='E_W_141' type='standard_car' route='E_W' depart='640' departLane='random' departSpeed='10' />
<vehicle id='W_E_142' type='standard_car' route='W_E' depart='644' departLane='random' departSpeed='10' />
<vehicle id='N_S_143' type='standard_car' route='N_S' depart='646' departLane='random' departSpeed='10' />
<vehicle id='N_S_144' type='standard_car' route='N_S' depart='658' departLane='random' departSpeed='10' />
<vehicle id='N_S_145' type='standard_car' route='N_S' depart='660' departLane='random' departSpeed='10' />
<vehicle id='W_E_146' type='standard_car' route='W_E' depart='673' departLane='random' departSpeed='10' />
<vehicle id='S_N_147' type='standard_car' route='S_N' depart='678' departLane='random' departSpeed='10' />
<vehicle id='E_W_148' type='standard_car' route='E_W' depart='678' departLane='random' departSpeed='10' />
<vehicle id='S_N_149' type='standard_car' route='S_N' depart='684' departLane='random' departSpeed='10' />
<vehicle id='W_E_150' type='standard_car' route='W_E' depart='685' departLane='random' departSpeed='10' />
<vehicle id='W_E_151' type='standard_car' route='W_E' depart='687' departLane='random' departSpeed='10' />
<vehicle id='S_N_152' type='standard_car' route='S_N' depart='692' departLane='random' departSpeed='10' />
<vehicle id='S_W_153' type='standard_car' route='S_W' depart='692' departLane='random' departSpeed='10' />
<vehicle id='N_S_154' type='standard_car' route='N_S' depart='700' departLane='random' departSpeed='10' />
<vehicle id='N_E_155' type='standard_car' route='N_E' depart='700' departLane='random' departSpeed='10' />
<vehicle id='S_N_156' type='standard_car' route='S_N' depart='701' departLane='random' departSpeed='10' />
<vehicle id='S_N_157' type='standard_car' route='S_N' depart='704' departLane='random' departSpeed='10' />
<vehicle id='S_N_158' type='standard_car' route='S_N' depart='710' departLane='random' departSpeed='10' />
<vehicle id='S_N_159' type='standard_car' route='S_N' depart='711' departLane='random' departSpeed='10' />
<vehicle id='S_W_160' type='standard_car' route='S_W' depart='711' departLane='random' departSpeed='10' />
<vehicle id='S_N_161' type='standard_car' route='S_N' depart='713' departLane='random' departSpeed='10' />
<vehicle id='N_S_162' type='standard_car' route='N_S' depart='715' departLane='random' departSpeed='10' />
<vehicle id='S_N_163' type='standard_car' route='S_N' depart='715' departLane='random' departSpeed='10' />
<vehicle id='S_N_164' type='standard_car' route='S_N' depart='717' departLane='random' departSpeed='10' />
<vehicle id='S_W_165' type='standard_car' route='S_W' depart='717' departLane='random' departSpeed='10' />
<vehicle id='N_S_166' type='standard_car' route='N_S' depart='721' departLane='random' departSpeed='10' />
<vehicle id='S_N_167' type='standard_car' route='S_N' depart='724' departLane='random' departSpeed='10' />
<vehicle id='S_N_168' type='standard_car' route='S_N' depart='725' departLane='random' departSpeed='10' />
<vehicle id='S_N_169' type='standard_car' route='S_N' depart='727' departLane='random' departSpeed='10' />
<vehicle id='S_W_170' type='standard_car' route='S_W' depart='727' departLane='random' departSpeed='10' />
<vehicle id='W_E_171' type='standard_car' route='W_E' depart='727' departLane='random' departSpeed='10' />
<vehicle id='S_N_172' type='standard_car' route='S_N' depart='729' departLane='random' departSpeed='10' />
<vehicle id='N_S_173' type='standard_car' route='N_S' depart='731' departLane='random' departSpeed='10' />
<vehicle id='W_E_174' type='standard_car' route='W_E' depart='773' departLane='random' departSpeed='10' />
<vehicle id='E_W_175' type='standard_car' route='E_W' depart='777' departLane='random' departSpeed='10' />
<vehicle id='E_S_176' type='standard_car' route='E_S' depart='777' departLane='random' departSpeed='10' />
<vehicle id='E_W_177' type='standard_car' route='E_W' depart='780' departLane='random' departSpeed='10' />
<vehicle id='S_N_178' type='standard_car' route='S_N' depart='793' departLane='random' departSpeed='10' />
<vehicle id='S_W_179' type='standard_car' route='S_W' depart='793' departLane='random' departSpeed='10' />
<vehicle id='N_S_180' type='standard_car' route='N_S' depart='793' departLane='random' departSpeed='10' />
<vehicle id='S_N_181' type='standard_car' route='S_N' depart='798' departLane='random' departSpeed='10' />
<vehicle id='S_N_182' type='standard_car' route='S_N' depart='801' departLane='random' departSpeed='10' />
<vehicle id='S_N_183' type='standard_car' route='S_N' depart='804' departLane='random' departSpeed='10' />
<vehicle id='S_N_184' type='standard_car' route='S_N' depart='814' departLane='random' departSpeed='10' />
<vehicle id='S_N_185' type='standard_car' route='S_N' depart='816' departLane='random' departSpeed='10' />
<vehicle id='S_N_186' type='standard_car' route='S_N' depart='818' departLane='random' departSpeed='10' />
<vehicle id='S_N_187' type='standard_car' route='S_N' depart='820' departLane='random' departSpeed='10' />
<vehicle id='S_N_188' type='standard_car' route='S_N' depart='825' departLane='random' departSpeed='10' />
<vehicle id='S_N_189' type='standard_car' route='S_N' depart='827' departLane='random' departSpeed='10' />
<vehicle id='N_S_190' type='standard_car' route='N_S' depart='828' departLane='random' departSpeed='10' />
<vehicle id='E_W_191' type='standard_car' route='E_W' depart='831' departLane='random' departSpeed='10' />
<vehicle id='S_N_192' type='standard_car' route='S_N' depart='832' departLane='random' departSpeed='10' />
<vehicle id='N_S_193' type='standard_car' route='N_S' depart='835' departLane='random' departSpeed='10' />
<vehicle id='S_N_194' type='standard_car' route='S_N' depart='836' departLane='random' departSpeed='10' />
<vehicle id='S_W_195' type='standard_car' route='S_W' depart='836' departLane='random' departSpeed='10' />
<vehicle id='S_N_196' type='standard_car' route='S_N' depart='837' departLane='random' departSpeed='10' />
<vehicle id='S_W_197' type='standard_car' route='S_W' depart='837' departLane='random' departSpeed='10' />
<vehicle id='S_N_198' type='standard_car' route='S_N' depart='837' departLane='random' departSpeed='10' />
<vehicle id='N_S_199' type='standard_car' route='N_S' depart='838' departLane='random' departSpeed='10' />
<vehicle id='S_N_200' type='standard_car' route='S_N' depart='840' departLane='random' departSpeed='10' />
<vehicle id='S_N_201' type='standard_car' route='S_N' depart='844' departLane='random' departSpeed='10' />
<vehicle id='N_S_202' type='standard_car' route='N_S' depart='844' departLane='random' departSpeed='10' />
<vehicle id='S_N_203' type='standard_car' route='S_N' depart='845' departLane='random' departSpeed='10' />
<vehicle id='S_N_204' type='standard_car' route='S_N' depart='847' departLane='random' departSpeed='10' />
<vehicle id='W_E_205' type='standard_car' route='W_E' depart='849' departLane='random' departSpeed='10' />
<vehicle id='S_N_206' type='standard_car' route='S_N' depart='849' departLane='random' departSpeed='10' />
<vehicle id='W_E_207' type='standard_car' route='W_E' depart='853' departLane='random' departSpeed='10' />
<vehicle id='S_N_208' type='standard_car' route='S_N' depart='854' departLane='random' departSpeed='10' />
<vehicle id='S_N_209' type='standard_car' route='S_N' depart='868' departLane='random' departSpeed='10' />
<vehicle id='W_E_210' type='standard_car' route='W_E' depart='899' departLane='random' departSpeed='10' />
<vehicle id='W_E_211' type='standard_car' route='W_E' depart='901' departLane='random' departSpeed='10' />
<vehicle id='S_N_212' type='standard_car' route='S_N' depart='907' departLane='random' departSpeed='10' />
<vehicle id='S_N_213' type='standard_car' route='S_N' depart='913' departLane='random' departSpeed='10' />
<vehicle id='S_N_214' type='standard_car' route='S_N' depart='924' departLane='random' departSpeed='10' />
<vehicle id='S_N_215' type='standard_car' route='S_N' depart='928' departLane='random' departSpeed='10' />
<vehicle id='S_N_216' type='standard_car' route='S_N' depart='930' departLane='random' departSpeed='10' />
<vehicle id='S_N_217' type='standard_car' route='S_N' depart='941' departLane='random' departSpeed='10' />
<vehicle id='S_N_218' type='standard_car' route='S_N' depart='942' departLane='random' departSpeed='10' />
<vehicle id='S_N_219' type='standard_car' route='S_N' depart='951' departLane='random' departSpeed='10' />
<vehicle id='S_N_220' type='standard_car' route='S_N' depart='962' departLane='random' departSpeed='10' />
<vehicle id='N_S_221' type='standard_car' route='N_S' depart='967' departLane='random' departSpeed='10' />
<vehicle id='E_W_222' type='standard_car' route='E_W' depart='969' departLane='random' departSpeed='10' />
<vehicle id='E_S_223' type='standard_car' route='E_S' depart='969' departLane='random' departSpeed='10' />
<vehicle id='E_W_224' type='standard_car' route='E_W' depart='971' departLane='random' departSpeed='10' />
<vehicle id='S_N_225' type='standard_car' route='S_N' depart='973' departLane='random' departSpeed='10' />
<vehicle id='N_S_226' type='standard_car' route='N_S' depart='977' departLane='random' departSpeed='10' />
<vehicle id='E_W_227' type='standard_car' route='E_W' depart='990' departLane='random' departSpeed='10' />
<vehicle id='E_W_228' type='standard_car' route='E_W' depart='1003' departLane='random' departSpeed='10' />
<vehicle id='S_N_229' type='standard_car' route='S_N' depart='1010' departLane='random' departSpeed='10' />
<vehicle id='N_S_230' type='standard_car' route='N_S' depart='1020' departLane='random' departSpeed='10' />
<vehicle id='W_E_231' type='standard_car' route='W_E' depart='1024' departLane='random' departSpeed='10' />
<vehicle id='S_N_232' type='standard_car' route='S_N' depart='1036' departLane='random' departSpeed='10' />
<vehicle id='W_E_233' type='standard_car' route='W_E' depart='1037' departLane='random' departSpeed='10' />
<vehicle id='S_N_234' type='standard_car' route='S_N' depart='1041' departLane='random' departSpeed='10' />
<vehicle id='S_W_235' type='standard_car' route='S_W' depart='1041' departLane='random' departSpeed='10' />
<vehicle id='S_N_236' type='standard_car' route='S_N' depart='1044' departLane='random' departSpeed='10' />
<vehicle id='S_N_237' type='standard_car' route='S_N' depart='1047' departLane='random' departSpeed='10' />
<vehicle id='S_W_238' type='standard_car' route='S_W' depart='1047' departLane='random' departSpeed='10' />
<vehicle id='W_E_239' type='standard_car' route='W_E' depart='1050' departLane='random' departSpeed='10' />
<vehicle id='S_N_240' type='standard_car' route='S_N' depart='1075' departLane='random' departSpeed='10' />
<vehicle id='S_N_241' type='standard_car' route='S_N' depart='1085' departLane='random' departSpeed='10' />
<vehicle id='W_E_242' type='standard_car' route='W_E' depart='1085' departLane='random' departSpeed='10' />
<vehicle id='S_N_243' type='standard_car' route='S_N' depart='1086' departLane='random' departSpeed='10' />
<vehicle id='N_S_244' type='standard_car' route='N_S' depart='1099' departLane='random' departSpeed='10' />
<vehicle id='E_W_245' type='standard_car' route='E_W' depart='1109' departLane='random' departSpeed='10' />
<vehicle id='E_S_246' type='standard_car' route='E_S' depart='1109' departLane='random' departSpeed='10' />
<vehicle id='E_W_247' type='standard_car' route='E_W' depart='1122' departLane='random' departSpeed='10' />
<vehicle id='S_N_248' type='standard_car' route='S_N' depart='1127' departLane='random' departSpeed='10' />
<vehicle id='W_E_249' type='standard_car' route='W_E' depart='1128' departLane='random' departSpeed='10' />
<vehicle id='S_N_250' type='standard_car' route='S_N' depart='1129' departLane='random' departSpeed='10' />
<vehicle id='S_N_251' type='standard_car' route='S_N' depart='1131' departLane='random' departSpeed='10' />
<vehicle id='S_N_252' type='standard_car' route='S_N' depart='1143' departLane='random' departSpeed='10' />
<vehicle id='N_S_253' type='standard_car' route='N_S' depart='1143' departLane='random' departSpeed='10' />
<vehicle id='W_E_254' type='standard_car' route='W_E' depart='1145' departLane='random' departSpeed='10' />
<vehicle id='W_N_255' type='standard_car' route='W_N' depart='1145' departLane='random' departSpeed='10' />
<vehicle id='N_S_256' type='standard_car' route='N_S' depart='1145' departLane='random' departSpeed='10' />
<vehicle id='S_N_257' type='standard_car' route='S_N' depart='1146' departLane='random' departSpeed='10' />
<vehicle id='S_N_258' type='standard_car' route='S_N' depart='1149' departLane='random' departSpeed='10' />
<vehicle id='S_N_259' type='standard_car' route='S_N' depart='1151' departLane='random' departSpeed='10' />
<vehicle id='S_N_260' type='standard_car' route='S_N' depart='1156' departLane='random' departSpeed='10' />
<vehicle id='S_W_261' type='standard_car' route='S_W' depart='1156' departLane='random' departSpeed='10' />
<vehicle id='W_E_262' type='standard_car' route='W_E' depart='1158' departLane='random' departSpeed='10' />
<vehicle id='S_N_263' type='standard_car' route='S_N' depart='1161' departLane='random' departSpeed='10' />
<vehicle id='S_N_264' type='standard_car' route='S_N' depart='1161' departLane='random' departSpeed='10' />
<vehicle id='S_N_265' type='standard_car' route='S_N' depart='1162' departLane='random' departSpeed='10' />
<vehicle id='S_N_266' type='standard_car' route='S_N' depart='1163' departLane='random' departSpeed='10' />
<vehicle id='N_S_267' type='standard_car' route='N_S' depart='1166' departLane='random' departSpeed='10' />
<vehicle id='S_N_268' type='standard_car' route='S_N' depart='1167' departLane='random' departSpeed='10' />
<vehicle id='S_W_269' type='standard_car' route='S_W' depart='1167' departLane='random' departSpeed='10' />
<vehicle id='S_N_270' type='standard_car' route='S_N' depart='1187' departLane='random' departSpeed='10' />
<vehicle id='S_N_271' type='standard_car' route='S_N' depart='1207' departLane='random' departSpeed='10' />
<vehicle id='S_N_272' type='standard_car' route='S_N' depart='1239' departLane='random' departSpeed='10' />
<vehicle id='W_E_273' type='standard_car' route='W_E' depart='1239' departLane='random' departSpeed='10' />