<routes>
    <vType id="standard_car" length='5.0' maxSpeed='11.11' minGap='2.5' accel='2.0' decel='4.5' />
<route id='N_S' edges='road_1_2_3 road_1_1_3' />
<route id='N_E' edges='road_1_2_3 road_1_1_0' />
<route id='N_W' edges='road_1_2_3 road_1_1_2' />
<route id='S_N' edges='road_1_0_1 road_1_1_1' />
<route id='S_W' edges='road_1_0_1 road_1_1_2' />
<route id='S_E' edges='road_1_0_1 road_1_1_0' />
<route id='E_W' edges='road_2_1_2 road_1_1_2' />
<route id='E_S' edges='road_2_1_2 road_1_1_3' />
<route id='E_N' edges='road_2_1_2 road_1_1_1' />
<route id='W_E' edges='road_0_1_0 road_1_1_0' />
<route id='W_N' edges='road_0_1_0 road_1_1_1' />
<route id='W_S' edges='road_0_1_0 road_1_1_3' />
<vehicle id='N_S_0' type='standard_car' route='N_S' depart='1' departLane='random' departSpeed='10' />
<vehicle id='N_S_1' type='standard_car' route='N_S' depart='3' departLane='random' departSpeed='10' />
<vehicle id='S_N_2' type='standard_car' route='S_N' depart='4' departLane='random' departSpeed='10' />
<vehicle id='S_N_3' type='standard_car' route='S_N' depart='5' departLane='random' departSpeed='10' />
<vehicle id='S_N_4' type='standard_car' route='S_N' depart='6' departLane='random' departSpeed='10' />
<vehicle id='S_W_5' type='standard_car' route='S_W' depart='6' departLane='random' departSpeed='10' />
<vehicle id='S_N_6' type='standard_car' route='S_N' depart='7' departLane='random' departSpeed='10' />
<vehicle id='S_N_7' type='standard_car' route='S_N' depart='8' departLane='random' departSpeed='10' />
<vehicle id='S_N_8' type='standard_car' route='S_N' depart='8' departLane='random' departSpeed='10' />
<vehicle id='N_S_9' type='standard_car' route='N_S' depart='9' departLane='random' departSpeed='10' />
<vehicle id='S_N_10' type='standard_car' route='S_N' depart='12' departLane='random' departSpeed='10' />
<vehicle id='S_N_11' type='standard_car' route='S_N' depart='13' departLane='random' departSpeed='10' />
<vehicle id='S_N_12' type='standard_car' route='S_N' depart='16' departLane='random' departSpeed='10' />
<vehicle id='W_E_13' type='standard_car' route='W_E' depart='18' departLane='random' departSpeed='10' />
<vehicle id='W_E_14' type='standard_car' route='W_E' depart='19' departLane='random' departSpeed='10' />
<vehicle id='W_E_15' type='standard_car' route='W_E' depart='20' departLane='random' departSpeed='10' />
<vehicle id='N_S_16' type='standard_car' route='N_S' depart='21' departLane='random' departSpeed='10' />
<vehicle id='W_E_17' type='standard_car' route='W_E' depart='22' departLane='random' departSpeed='10' />
<vehicle id='W_N_18' type='standard_car' route='W_N' depart='22' departLane='random' departSpeed='10' />
<vehicle id='W_E_19' type='standard_car' route='W_E' depart='23' departLane='random' departSpeed='10' />
<vehicle id='E_W_20' type='standard_car' route='E_W' depart='23' departLane='random' departSpeed='10' />
<vehicle id='E_W_21' type='standard_car' route='E_W' depart='24' departLane='random' departSpeed='10' />
<vehicle id='N_S_22' type='standard_car' route='N_S' depart='26' departLane='random' departSpeed='10' />
<vehicle id='E_W_23' type='standard_car' route='E_W' depart='28' departLane='random' departSpeed='10' />
<vehicle id='W_E_24' type='standard_car' route='W_E' depart='29' departLane='random' departSpeed='10' />
<vehicle id='S_N_25' type='standard_car' route='S_N' depart='31' departLane='random' departSpeed='10' />
<vehicle id='S_N_26' type='standard_car' route='S_N' depart='33' departLane='random' departSpeed='10' />
<vehicle id='N_S_27' type='standard_car' route='N_S' depart='35' departLane='random' departSpeed='10' />
<vehicle id='W_E_28' type='standard_car' route='W_E' depart='36' departLane='random' departSpeed='10' />
<vehicle id='W_E_29' type='standard_car' route='W_E' depart='52' departLane='random' departSpeed='10' />
<vehicle id='W_E_30' type='standard_car' route='W_E' depart='60' departLane='random' departSpeed='10' />
<vehicle id='E_W_31' type='standard_car' route='E_W' depart='64' departLane='random' departSpeed='10' />
<vehicle id='W_E_32' type='standard_car' route='W_E' depart='66' departLane='random' departSpeed='10' />
<vehicle id='S_N_33' type='standard_car' route='S_N' depart='67' departLane='random' departSpeed='10' />
<vehicle id='W_E_34' type='standard_car' route='W_E' depart='68' departLane='random' departSpeed='10' />
<vehicle id='E_W_35' type='standard_car' route='E_W' depart='69' departLane='random' departSpeed='10' />
<vehicle id='W_E_36' type='standard_car' route='W_E' depart='70' departLane='random' departSpeed='10' />
<vehicle id='W_E_37' type='standard_car' route='W_E' depart='70' departLane='random' departSpeed='10' />
<vehicle id='W_N_38' type='standard_car' route='W_N' depart='70' departLane='random' departSpeed='10' />
<vehicle id='S_N_39' type='standard_car' route='S_N' depart='70' departLane='random' departSpeed='10' />
<vehicle id='S_W_40' type='standard_car' route='S_W' depart='70' departLane='random' departSpeed='10' />
<vehicle id='W_E_41' type='standard_car' route='W_E' depart='72' departLane='random' departSpeed='10' />
<vehicle id='E_W_42' type='standard_car' route='E_W' depart='73' departLane='random' departSpeed='10' />
<vehicle id='W_E_43' type='standard_car' route='W_E' depart='74' departLane='random' departSpeed='10' />
<vehicle id='W_N_44' type='standard_car' route='W_N' depart='74' departLane='random' departSpeed='10' />
<vehicle id='W_E_45' type='standard_car' route='W_E' depart='75' departLane='random' departSpeed='10' />
<vehicle id='W_N_46' type='standard_car' route='W_N' depart='75' departLane='random' departSpeed='10' />
<vehicle id='W_E_47' type='standard_car' route='W_E' depart='77' departLane='random' departSpeed='10' />
<vehicle id='E_W_48' type='standard_car' route='E_W' depart='80' departLane='random' departSpeed='10' />
<vehicle id='E_W_49' type='standard_car' route='E_W' depart='81' departLane='random' departSpeed='10' />
<vehicle id='S_N_50' type='standard_car' route='S_N' depart='81' departLane='random' departSpeed='10' />
<vehicle id='E_W_51' type='standard_car' route='E_W' depart='84' departLane='random' departSpeed='10' />
<vehicle id='E_W_52' type='standard_car' route='E_W' depart='87' departLane='random' departSpeed='10' />
<vehicle id='W_E_53' type='standard_car' route='W_E' depart='87' departLane='random' departSpeed='10' />
<vehicle id='W_E_54' type='standard_car' route='W_E' depart='88' departLane='random' departSpeed='10' />
<vehicle id='W_E_55' type='standard_car' route='W_E' depart='88' departLane='random' departSpeed='10' />
<vehicle id='E_W_56' type='standard_car' route='E_W' depart='90' departLane='random' departSpeed='10' />
<vehicle id='S_N_57' type='standard_car' route='S_N' depart='90' departLane='random' departSpeed='10' />
<vehicle id='W_E_58' type='standard_car' route='W_E' depart='90' departLane='random' departSpeed='10' />
<vehicle id='W_N_59' type='standard_car' route='W_N' depart='90' departLane='random' departSpeed='10' />
<vehicle id='W_E_60' type='standard_car' route='W_E' depart='92' departLane='random' departSpeed='10' />
<vehicle id='E_W_61' type='standard_car' route='E_W' depart='93' departLane='random' departSpeed='10' />
<vehicle id='E_W_62' type='standard_car' route='E_W' depart='93' departLane='random' departSpeed='10' />
<vehicle id='W_E_63' type='standard_car' route='W_E' depart='93' departLane='random' departSpeed='10' />
<vehicle id='W_E_64' type='standard_car' route='W_E' depart='103' departLane='random' departSpeed='10' />
<vehicle id='W_E_65' type='standard_car' route='W_E' depart='103' departLane='random' departSpeed='10' />
<vehicle id='W_N_66' type='standard_car' route='W_N' depart='103' departLane='random' departSpeed='10' />
<vehicle id='W_E_67' type='standard_car' route='W_E' depart='105' departLane='random' departSpeed='10' />
<vehicle id='W_N_68' type='standard_car' route='W_N' depart='105' departLane='random' departSpeed='10' />
<vehicle id='S_N_69' type='standard_car' route='S_N' depart='106' departLane='random' departSpeed='10' />
<vehicle id='S_W_70' type='standard_car' route='S_W' depart='106' departLane='random' departSpeed='10' />
<vehicle id='E_W_71' type='standard_car' route='E_W' depart='108' departLane='random' departSpeed='10' />
<vehicle id='E_W_72' type='standard_car' route='E_W' depart='110' departLane='random' departSpeed='10' />
<vehicle id='W_E_73' type='standard_car' route='W_E' depart='110' departLane='random' departSpeed='10' />
<vehicle id='E_W_74' type='standard_car' route='E_W' depart='113' departLane='random' departSpeed='10' />
<vehicle id='N_S_75' type='standard_car' route='N_S' depart='114' departLane='random' departSpeed='10' />
<vehicle id='E_W_76' type='standard_car' route='E_W' depart='116' departLane='random' departSpeed='10' />
<vehicle id='W_E_77' type='standard_car' route='W_E' depart='122' departLane='random' departSpeed='10' />
<vehicle id='W_E_78' type='standard_car' route='W_E' depart='123' departLane='random' departSpeed='10' />
<vehicle id='W_N_79' type='standard_car' route='W_N' depart='123' departLane='random' departSpeed='10' />
<vehicle id='S_N_80' type='standard_car' route='S_N' depart='123' departLane='random' departSpeed='10' />
<vehicle id='S_N_81' type='standard_car' route='S_N' depart='124' departLane='random' departSpeed='10' />
<vehicle id='W_E_82' type='standard_car' route='W_E' depart='126' departLane='random' departSpeed='10' />
<vehicle id='E_W_83' type='standard_car' route='E_W' depart='127' departLane='random' departSpeed='10' />
<vehicle id='S_N_84' type='standard_car' route='S_N' depart='127' departLane='random' departSpeed='10' />
<vehicle id='N_S_85' type='standard_car' route='N_S' depart='128' departLane='random' departSpeed='10' />
<vehicle id='S_N_86' type='standard_car' route='S_N' depart='128' departLane='random' departSpeed='10' />
<vehicle id='S_N_87' type='standard_car' route='S_N' depart='129' departLane='random' departSpeed='10' />
<vehicle id='W_E_88' type='standard_car' route='W_E' depart='129' departLane='random' departSpeed='10' />
<vehicle id='E_W_89' type='standard_car' route='E_W' depart='130' departLane='random' departSpeed='10' />
<vehicle id='S_N_90' type='standard_car' route='S_N' depart='132' departLane='random' departSpeed='10' />
<vehicle id='E_W_91' type='standard_car' route='E_W' depart='133' departLane='random' departSpeed='10' />
<vehicle id='S_N_92' type='standard_car' route='S_N' depart='137' departLane='random' departSpeed='10' />
<vehicle id='E_W_93' type='standard_car' route='E_W' depart='137' departLane='random' departSpeed='10' />
<vehicle id='E_S_94' type='standard_car' route='E_S' depart='137' departLane='random' departSpeed='10' />
<vehicle id='N_S_95' type='standard_car' route='N_S' depart='138' departLane='random' departSpeed='10' />
<vehicle id='E_W_96' type='standard_car' route='E_W' depart='139' departLane='random' departSpeed='10' />
<vehicle id='S_N_97' type='standard_car' route='S_N' depart='139' departLane='random' departSpeed='10' />
<vehicle id='N_S_98' type='standard_car' route='N_S' depart='140' departLane='random' departSpeed='10' />
<vehicle id='N_S_99' type='standard_car' route='N_S' depart='143' departLane='random' departSpeed='10' />
<vehicle id='N_E_100' type='standard_car' route='N_E' depart='143' departLane='random' departSpeed='10' />
<vehicle id='W_E_101' type='standard_car' route='W_E' depart='143' departLane='random' departSpeed='10' />
<vehicle id='N_S_102' type='standard_car' route='N_S' depart='148' departLane='random' departSpeed='10' />
<vehicle id='N_E_103' type='standard_car' route='N_E' depart='148' departLane='random' departSpeed='10' />
<vehicle id='N_S_104' type='standard_car' route='N_S' depart='149' departLane='random' departSpeed='10' />
<vehicle id='N_S_105' type='standard_car' route='N_S' depart='163' departLane='random' departSpeed='10' />
<vehicle id='N_S_106' type='standard_car' route='N_S' depart='164' departLane='random' departSpeed='10' />
<vehicle id='N_S_107' type='standard_car' route='N_S' depart='166' departLane='random' departSpeed='10' />
<vehicle id='S_N_108' type='standard_car' route='S_N' depart='170' departLane='random' departSpeed='10' />
<vehicle id='N_S_109' type='standard_car' route='N_S' depart='175' departLane='random' departSpeed='10' />
<vehicle id='N_S_110' type='standard_car' route='N_S' depart='179' departLane='random' departSpeed='10' />
<vehicle id='N_S_111' type='standard_car' route='N_S' depart='185' departLane='random' departSpeed='10' />
<vehicle id='S_N_112' type='standard_car' route='S_N' depart='186' departLane='random' departSpeed='10' />
<vehicle id='N_S_113' type='standard_car' route='N_S' depart='188' departLane='random' departSpeed='10' />
<vehicle id='S_N_114' type='standard_car' route='S_N' depart='189' departLane='random' departSpeed='10' />
<vehicle id='S_N_115' type='standard_car' route='S_N' depart='191' departLane='random' departSpeed='10' />
<vehicle id='S_N_116' type='standard_car' route='S_N' depart='193' departLane='random' departSpeed='10' />
<vehicle id='S_N_117' type='standard_car' route='S_N' depart='209' departLane='random' departSpeed='10' />
<vehicle id='S_N_118' type='standard_car' route='S_N' depart='210' departLane='random' departSpeed='10' />
<vehicle id='S_W_119' type='standard_car' route='S_W' depart='210' departLane='random' departSpeed='10' />
<vehicle id='W_E_120' type='standard_car' route='W_E' depart='220' departLane='random' departSpeed='10' />
<vehicle id='N_S_121' type='standard_car' route='N_S' depart='221' departLane='random' departSpeed='10' />
<vehicle id='W_E_122' type='standard_car' route='W_E' depart='225' departLane='random' departSpeed='10' />
<vehicle id='W_N_123' type='standard_car' route='W_N' depart='225' departLane='random' departSpeed='10' />
<vehicle id='W_E_124' type='standard_car' route='W_E' depart='231' departLane='random' departSpeed='10' />
<vehicle id='W_E_125' type='standard_car' route='W_E' depart='234' departLane='random' departSpeed='10' />
<vehicle id='W_E_126' type='standard_car' route='W_E' depart='234' departLane='random' departSpeed='10' />
<vehicle id='E_W_127' type='standard_car' route='E_W' depart='236' departLane='random' departSpeed='10' />
<vehicle id='E_W_128' type='standard_car' route='E_W' depart='237' departLane='random' departSpeed='10' />
<vehicle id='E_S_129' type='standard_car' route='E_S' depart='237' departLane='random' departSpeed='10' />
<vehicle id='W_E_130' type='standard_car' route='W_E' depart='237' departLane='random' departSpeed='10' />
<vehicle id='W_E_131' type='standard_car' route='W_E' depart='237' departLane='random' departSpeed='10' />
<vehicle id='E_W_132' type='standard_car' route='E_W' depart='239' departLane='random' departSpeed='10' />
<vehicle id='W_E_133' type='standard_car' route='W_E' depart='239' departLane='random' departSpeed='10' />
<vehicle id='E_W_134' type='standard_car' route='E_W' depart='239' departLane='random' departSpeed='10' />
<vehicle id='E_S_135' type='standard_car' route='E_S' depart='239' departLane='random' departSpeed='10' />
<vehicle id='W_E_136' type='standard_car' route='W_E' depart='241' departLane='random' departSpeed='10' />
<vehicle id='W_E_137' type='standard_car' route='W_E' depart='243' departLane='random' departSpeed='10' />
<vehicle id='E_W_138' type='standard_car' route='E_W' depart='244' departLane='random' departSpeed='10' />
<vehicle id='W_E_139' type='standard_car' route='W_E' depart='244' departLane='random' departSpeed='10' />
<vehicle id='W_E_140' type='standard_car' route='W_E' depart='245' departLane='random' departSpeed='10' />
<vehicle id='W_E_141' type='standard_car' route='W_E' depart='245' departLane='random' departSpeed='10' />
<vehicle id='W_E_142' type='standard_car' route='W_E' depart='248' departLane='random' departSpeed='10' />
<vehicle id='W_N_143' type='standard_car' route='W_N' depart='248' departLane='random' departSpeed='10' />
<vehicle id='W_E_144' type='standard_car' route='W_E' depart='249' departLane='random' departSpeed='10' />
<vehicle id='W_N_145' type='standard_car' route='W_N' depart='249' departLane='random' departSpeed='10' />
<vehicle id='W_E_146' type='standard_car' route='W_E' depart='250' departLane='random' departSpeed='10' />
<vehicle id='E_W_147' type='standard_car' route='E_W' depart='251' departLane='random' departSpeed='10' />
<vehicle id='E_W_148' type='standard_car' route='E_W' depart='252' departLane='random' departSpeed='10' />
<vehicle id='E_S_149' type='standard_car' route='E_S' depart='252' departLane='random' departSpeed='10' />
<vehicle id='S_N_150' type='standard_car' route='S_N' depart='256' departLane='random' departSpeed='10' />
<vehicle id='W_E_151' type='standard_car' route='W_E' depart='257' departLane='random' departSpeed='10' />
<vehicle id='E_W_152' type='standard_car' route='E_W' depart='257' departLane='random' departSpeed='10' />
<vehicle id='S_N_153' type='standard_car' route='S_N' depart='258' departLane='random' departSpeed='10' />
<vehicle id='W_E_154' type='standard_car' route='W_E' depart='259' departLane='random' departSpeed='10' />
<vehicle id='E_W_155' type='standard_car' route='E_W' depart='260' departLane='random' departSpeed='10' />
<vehicle id='E_S_156' type='standard_car' route='E_S' depart='260' departLane='random' departSpeed='10' />
<vehicle id='W_E_157' type='standard_car' route='W_E' depart='261' departLane='random' departSpeed='10' />
<vehicle id='W_N_158' type='standard_car' route='W_N' depart='261' departLane='random' departSpeed='10' />
<vehicle id='E_W_159' type='standard_car' route='E_W' depart='261' departLane='random' departSpeed='10' />
<vehicle id='W_E_160' type='standard_car' route='W_E' depart='262' departLane='random' departSpeed='10' />
<vehicle id='W_E_161' type='standard_car' route='W_E' depart='262' departLane='random' departSpeed='10' />
<vehicle id='E_W_162' type='standard_car' route='E_W' depart='262' departLane='random' departSpeed='10' />
<vehicle id='W_E_163' type='standard_car' route='W_E' depart='262' departLane='random' departSpeed='10' />
<vehicle id='S_N_164' type='standard_car' route='S_N' depart='262' departLane='random' departSpeed='10' />
<vehicle id='S_W_165' type='standard_car' route='S_W' depart='262' departLane='random' departSpeed='10' />
<vehicle id='W_E_166' type='standard_car' route='W_E' depart='263' departLane='random' departSpeed='10' />
<vehicle id='W_N_167' type='standard_car' route='W_N' depart='263' departLane='random' departSpeed='10' />
<vehicle id='W_E_168' type='standard_car' route='W_E' depart='267' departLane='random' departSpeed='10' />
<vehicle id='E_W_169' type='standard_car' route='E_W' depart='269' departLane='random' departSpeed='10' />
<vehicle id='E_W_170' type='standard_car' route='E_W' depart='272' departLane='random' departSpeed='10' />
<vehicle id='E_W_171' type='standard_car' route='E_W' depart='273' departLane='random' departSpeed='10' />
<vehicle id='E_S_172' type='standard_car' route='E_S' depart='273' departLane='random' departSpeed='10' />
<vehicle id='W_E_173' type='standard_car' route='W_E' depart='273' departLane='random' departSpeed='10' />
<vehicle id='E_W_174' type='standard_car' route='E_W' depart='275' departLane='random' departSpeed='10' />
<vehicle id='E_W_175' type='standard_car' route='E_W' depart='275' departLane='random' departSpeed='10' />
<vehicle id='S_N_176' type='standard_car' route='S_N' depart='276' departLane='random' departSpeed='10' />
<vehicle id='E_W_177' type='standard_car' route='E_W' depart='278' departLane='random' departSpeed='10' />
<vehicle id='E_W_178' type='standard_car' route='E_W' depart='280' departLane='random' departSpeed='10' />
<vehicle id='E_S_179' type='standard_car' route='E_S' depart='280' departLane='random' departSpeed='10' />
<vehicle id='W_E_180' type='standard_car' route='W_E' depart='283' departLane='random' departSpeed='10' />
<vehicle id='N_S_181' type='standard_car' route='N_S' depart='286' departLane='random' departSpeed='10' />
<vehicle id='W_E_182' type='standard_car' route='W_E' depart='287' departLane='random' departSpeed='10' />
<vehicle id='E_W_183' type='standard_car' route='E_W' depart='289' departLane='random' departSpeed='10' />
<vehicle id='N_S_184' type='standard_car' route='N_S' depart='290' departLane='random' departSpeed='10' />
<vehicle id='N_E_185' type='standard_car' route='N_E' depart='290' departLane='random' departSpeed='10' />
<vehicle id='W_E_186' type='standard_car' route='W_E' depart='291' departLane='random' departSpeed='10' />
<vehicle id='N_S_187' type='standard_car' route='N_S' depart='293' departLane='random' departSpeed='10' />
<vehicle id='E_W_188' type='standard_car' route='E_W' depart='294' departLane='random' departSpeed='10' />
<vehicle id='E_W_189' type='standard_car' route='E_W' depart='295' departLane='random' departSpeed='10' />
<vehicle id='E_W_190' type='standard_car' route='E_W' depart='295' departLane='random' departSpeed='10' />
<vehicle id='N_S_191' type='standard_car' route='N_S' depart='298' departLane='random' departSpeed='10' />
<vehicle id='N_S_192' type='standard_car' route='N_S' depart='300' departLane='random' departSpeed='10' />
<vehicle id='N_E_193' type='standard_car' route='N_E' depart='300' departLane='random' departSpeed='10' />
<vehicle id='N_S_194' type='standard_car' route='N_S' depart='301' departLane='random' departSpeed='10' />
<vehicle id='N_E_195' type='standard_car' route='N_E' depart='301' departLane='random' departSpeed='10' />
<vehicle id='E_W_196' type='standard_car' route='E_W' depart='309' departLane='random' departSpeed='10' />
<vehicle id='S_N_197' type='standard_car' route='S_N' depart='312' departLane='random' departSpeed='10' />
<vehicle id='W_E_198' type='standard_car' route='W_E' depart='316' departLane='random' departSpeed='10' />
<vehicle id='W_E_199' type='standard_car' route='W_E' depart='318' departLane='random' departSpeed='10' />
<vehicle id='W_N_200' type='standard_car' route='W_N' depart='318' departLane='random' departSpeed='10' />
<vehicle id='N_S_201' type='standard_car' route='N_S' depart='319' departLane='random' departSpeed='10' />
<vehicle id='S_N_202' type='standard_car' route='S_N' depart='321' departLane='random' departSpeed='10' />
<vehicle id='S_N_203' type='standard_car' route='S_N' depart='323' departLane='random' departSpeed='10' />
<vehicle id='N_S_204' type='standard_car' route='N_S' depart='325' departLane='random' departSpeed='10' />
<vehicle id='S_N_205' type='standard_car' route='S_N' depart='328' departLane='random' departSpeed='10' />
<vehicle id='S_N_206' type='standard_car' route='S_N' depart='333' departLane='random' departSpeed='10' />
<vehicle id='W_E_207' type='standard_car' route='W_E' depart='335' departLane='random' departSpeed='10' />
<vehicle id='W_E_208' type='standard_car' route='W_E' depart='340' departLane='random' departSpeed='10' />
<vehicle id='W_N_209' type='standard_car' route='W_N' depart='340' departLane='random' departSpeed='10' />
<vehicle id='S_N_210' type='standard_car' route='S_N' depart='340' departLane='random' departSpeed='10' />
<vehicle id='N_S_211' type='standard_car' route='N_S' depart='342' departLane='random' departSpeed='10' />
<vehicle id='N_S_212' type='standard_car' route='N_S' depart='346' departLane='random' departSpeed='10' />
<vehicle id='N_E_213' type='standard_car' route='N_E' depart='346' departLane='random' departSpeed='10' />
<vehicle id='S_N_214' type='standard_car' route='S_N' depart='348' departLane='random' departSpeed='10' />
<vehicle id='S_N_215' type='standard_car' route='S_N' depart='351' departLane='random' departSpeed='10' />
<vehicle id='S_N_216' type='standard_car' route='S_N' depart='357' departLane='random' departSpeed='10' />
<vehicle id='S_N_217' type='standard_car' route='S_N' depart='360' departLane='random' departSpeed='10' />
<vehicle id='N_S_218' type='standard_car' route='N_S' depart='362' departLane='random' departSpeed='10' />
<vehicle id='N_S_219' type='standard_car' route='N_S' depart='362' departLane='random' departSpeed='10' />
<vehicle id='S_N_220' type='standard_car' route='S_N' depart='367' departLane='random' departSpeed='10' />
<vehicle id='S_N_221' type='standard_car' route='S_N' depart='367' departLane='random' departSpeed='10' />
<vehicle id='N_S_222' type='standard_car' route='N_S' depart='370' departLane='random' departSpeed='10' />
<vehicle id='N_E_223' type='standard_car' route='N_E' depart='370' departLane='random' departSpeed='10' />
<vehicle id='S_N_224' type='standard_car' route='S_N' depart='370' departLane='random' departSpeed='10' />
<vehicle id='S_N_225' type='standard_car' route='S_N' depart='371' departLane='random' departSpeed='10' />
<vehicle id='S_N_226' type='standard_car' route='S_N' depart='372' departLane='random' departSpeed='10' />
<vehicle id='S_N_227' type='standard_car' route='S_N' depart='373' departLane='random' departSpeed='10' />
<vehicle id='S_N_228' type='standard_car' route='S_N' depart='376' departLane='random' departSpeed='10' />
<vehicle id='E_W_229' type='standard_car' route='E_W' depart='377' departLane='random' departSpeed='10' />
<vehicle id='S_N_230' type='standard_car' route='S_N' depart='379' departLane='random' departSpeed='10' />
<vehicle id='W_E_231' type='standard_car' route='W_E' depart='381' departLane='random' departSpeed='10' />
<vehicle id='E_W_232' type='standard_car' route='E_W' depart='386' departLane='random' departSpeed='10' />
<vehicle id='N_S_233' type='standard_car' route='N_S' depart='389' departLane='random' departSpeed='10' />
<vehicle id='W_E_234' type='standard_car' route='W_E' depart='390' departLane='random' departSpeed='10' />
<vehicle id='W_E_235' type='standard_car' route='W_E' depart='393' departLane='random' departSpeed='10' />
<vehicle id='E_W_236' type='standard_car' route='E_W' depart='397' departLane='random' departSpeed='10' />
<vehicle id='S_N_237' type='standard_car' route='S_N' depart='401' departLane='random' departSpeed='10' />
<vehicle id='N_S_238' type='standard_car' route='N_S' depart='402' departLane='random' departSpeed='10' />
<vehicle id='N_S_239' type='standard_car' route='N_S' depart='402' departLane='random' departSpeed='10' />
<vehicle id='W_E_240' type='standard_car' route='W_E' depart='411' departLane='random' departSpeed='10' />
<vehicle id='E_W_241' type='standard_car' route='E_W' depart='412' departLane='random' departSpeed='10' />
<vehicle id='W_E_242' type='standard_car' route='W_E' depart='412' departLane='random' departSpeed='10' />
<vehicle id='E_W_243' type='standard_car' route='E_W' depart='413' departLane='random' departSpeed='10' />
<vehicle id='E_W_244' type='standard_car' route='E_W' depart='415' departLane='random' departSpeed='10' />
<vehicle id='W_E_245' type='standard_car' route='W_E' depart='416' departLane='random' departSpeed='10' />
<vehicle id='E_W_246' type='standard_car' route='E_W' depart='417' departLane='random' departSpeed='10' />
<vehicle id='N_S_247' type='standard_car' route='N_S' depart='419' departLane='random' departSpeed='10' />
<vehicle id='W_E_248' type='standard_car' route='W_E' depart='420' departLane='random' departSpeed='10' />
<vehicle id='E_W_249' type='standard_car' route='E_W' depart='424' departLane='random' departSpeed='10' />
<vehicle id='E_W_250' type='standard_car' route='E_W' depart='426' departLane='random' departSpeed='10' />
<vehicle id='E_S_251' type='standard_car' route='E_S' depart='426' departLane='random' departSpeed='10' />
<vehicle id='W_E_252' type='standard_car' route='W_E' depart='427' departLane='random' departSpeed='10' />
<vehicle id='W_N_253' type='standard_car' route='W_N' depart='427' departLane='random' departSpeed='10' />
<vehicle id='E_W_254' type='standard_car' route='E_W' depart='428' departLane='random' departSpeed='10' />
<vehicle id='E_W_255' type='standard_car' route='E_W' depart='429' departLane='random' departSpeed='10' />
<vehicle id='S_N_256' type='standard_car' route='S_N' depart='429' departLane='random' departSpeed='10' />
<vehicle id='S_W_257' type='standard_car' route='S_W' depart='429' departLane='random' departSpeed='10' />
<vehicle id='E_W_258' type='standard_car' route='E_W' depart='429' departLane='random' departSpeed='10' />
<vehicle id='E_W_259' type='standard_car' route='E_W' depart='432' departLane='random' departSpeed='10' />
<vehicle id='W_E_260' type='standard_car' route='W_E' depart='435' departLane='random' departSpeed='10' />
<vehicle id='W_E_261' type='standard_car' route='W_E' depart='436' departLane='random' departSpeed='10' />
<vehicle id='W_E_262' type='standard_car' route='W_E' depart='438' departLane='random' departSpeed='10' />
<vehicle id='E_W_263' type='standard_car' route='E_W' depart='440' departLane='random' departSpeed='10' />
<vehicle id='E_W_264' type='standard_car' route='E_W' depart='440' departLane='random' departSpeed='10' />
<vehicle id='E_W_265' type='standard_car' route='E_W' depart='441' departLane='random' departSpeed='10' />
<vehicle id='W_E_266' type='standard_car' route='W_E' depart='442' departLane='random' departSpeed='10' />
<vehicle id='E_W_267' type='standard_car' route='E_W' depart='442' departLane='random' departSpeed='10' />
<vehicle id='W_E_268' type='standard_car' route='W_E' depart='442' departLane='random' departSpeed='10' />
<vehicle id='W_N_269' type='standard_car' route='W_N' depart='442' departLane='random' departSpeed='10' />
<vehicle id='W_E_270' type='standard_car' route='W_E' depart='443' departLane='random' departSpeed='10' />
<vehicle id='W_N_271' type='standard_car' route='W_N' depart='443' departLane='random' departSpeed='10' />
<vehicle id='E_W_272' type='standard_car' route='E_W' depart='445' departLane='random' departSpeed='10' />
<vehicle id='E_W_273' type='standard_car' route='E_W' depart='447' departLane='random' departSpeed='10' />
<vehicle id='E_W_274' type='standard_car' route='E_W' depart='447' departLane='random' departSpeed='10' />