<routes>
    <vType id="standard_car" length='5.0' maxSpeed='11.11' minGap='2.5' accel='2.0' decel='4.5' />
<route id='N_S' edges='road_1_2_3 road_1_1_3' />
<route id='N_E' edges='road_1_2_3 road_1_1_0' />
<route id='N_W' edges='road_1_2_3 road_1_1_2' />
<route id='S_N' edges='road_1_0_1 road_1_1_1' />
<route id='S_W' edges='road_1_0_1 road_1_1_2' />
<route id='S_E' edges='road_1_0_1 road_1_1_0' />
<route id='E_W' edges='road_2_1_2 road_1_1_2' />
<route id='E_S' edges='road_2_1_2 road_1_1_3' />
<route id='E_N' edges='road_2_1_2 road_1_1_1' />
<route id='W_E' edges='road_0_1_0 road_1_1_0' />
<route id='W_N' edges='road_0_1_0 road_1_1_1' />
<route id='W_S' edges='road_0_1_0 road_1_1_3' />
<vehicle id='W_E_0' type='standard_car' route='W_E' depart='1' departLane='random' departSpeed='10' />
<vehicle id='S_N_1' type='standard_car' route='S_N' depart='2' departLane='random' departSpeed='10' />
<vehicle id='S_W_2' type='standard_car' route='S_W' depart='2' departLane='random' departSpeed='10' />
<vehicle id='W_E_3' type='standard_car' route='W_E' depart='3' departLane='random' departSpeed='10' />
<vehicle id='S_N_4' type='standard_car' route='S_N' depart='10' departLane='random' departSpeed='10' />
<vehicle id='S_W_5' type='standard_car' route='S_W' depart='10' departLane='random' departSpeed='10' />
<vehicle id='S_N_6' type='standard_car' route='S_N' depart='28' departLane='random' departSpeed='10' />
<vehicle id='W_E_7' type='standard_car' route='W_E' depart='29' departLane='random' departSpeed='10' />
<vehicle id='E_W_8' type='standard_car' route='E_W' depart='47' departLane='random' departSpeed='10' />
<vehicle id='W_E_9' type='standard_car' route='W_E' depart='55' departLane='random' departSpeed='10' />
<vehicle id='W_E_10' type='standard_car' route='W_E' depart='60' departLane='random' departSpeed='10' />
<vehicle id='W_N_11' type='standard_car' route='W_N' depart='60' departLane='random' departSpeed='10' />
<vehicle id='W_E_12' type='standard_car' route='W_E' depart='60' departLane='random' departSpeed='10' />
<vehicle id='E_W_13' type='standard_car' route='E_W' depart='62' departLane='random' departSpeed='10' />
<vehicle id='W_E_14' type='standard_car' route='W_E' depart='62' departLane='random' departSpeed='10' />
<vehicle id='W_E_15' type='standard_car' route='W_E' depart='63' departLane='random' departSpeed='10' />
<vehicle id='E_W_16' type='standard_car' route='E_W' depart='64' departLane='random' departSpeed='10' />
<vehicle id='W_E_17' type='standard_car' route='W_E' depart='65' departLane='random' departSpeed='10' />
<vehicle id='E_W_18' type='standard_car' route='E_W' depart='66' departLane='random' departSpeed='10' />
<vehicle id='E_S_19' type='standard_car' route='E_S' depart='66' departLane='random' departSpeed='10' />
<vehicle id='E_W_20' type='standard_car' route='E_W' depart='66' departLane='random' departSpeed='10' />
<vehicle id='E_W_21' type='standard_car' route='E_W' depart='66' departLane='random' departSpeed='10' />
<vehicle id='W_E_22' type='standard_car' route='W_E' depart='67' departLane='random' departSpeed='10' />
<vehicle id='E_W_23' type='standard_car' route='E_W' depart='70' departLane='random' departSpeed='10' />
<vehicle id='W_E_24' type='standard_car' route='W_E' depart='72' departLane='random' departSpeed='10' />
<vehicle id='E_W_25' type='standard_car' route='E_W' depart='73' departLane='random' departSpeed='10' />
<vehicle id='E_S_26' type='standard_car' route='E_S' depart='73' departLane='random' departSpeed='10' />
<vehicle id='E_W_27' type='standard_car' route='E_W' depart='73' departLane='random' departSpeed='10' />
<vehicle id='E_S_28' type='standard_car' route='E_S' depart='73' departLane='random' departSpeed='10' />
<vehicle id='W_E_29' type='standard_car' route='W_E' depart='74' departLane='random' departSpeed='10' />
<vehicle id='E_W_30' type='standard_car' route='E_W' depart='76' departLane='random' departSpeed='10' />
<vehicle id='E_W_31' type='standard_car' route='E_W' depart='76' departLane='random' departSpeed='10' />
<vehicle id='E_S_32' type='standard_car' route='E_S' depart='76' departLane='random' departSpeed='10' />
<vehicle id='W_E_33' type='standard_car' route='W_E' depart='78' departLane='random' departSpeed='10' />
<vehicle id='E_W_34' type='standard_car' route='E_W' depart='81' departLane='random' departSpeed='10' />
<vehicle id='E_W_35' type='standard_car' route='E_W' depart='83' departLane='random' departSpeed='10' />
<vehicle id='W_E_36' type='standard_car' route='W_E' depart='84' departLane='random' departSpeed='10' />
<vehicle id='W_E_37' type='standard_car' route='W_E' depart='84' departLane='random' departSpeed='10' />
<vehicle id='W_N_38' type='standard_car' route='W_N' depart='84' departLane='random' departSpeed='10' />
<vehicle id='W_E_39' type='standard_car' route='W_E' depart='85' departLane='random' departSpeed='10' />
<vehicle id='W_E_40' type='standard_car' route='W_E' depart='86' departLane='random' departSpeed='10' />
<vehicle id='E_W_41' type='standard_car' route='E_W' depart='96' departLane='random' departSpeed='10' />
<vehicle id='W_E_42' type='standard_car' route='W_E' depart='108' departLane='random' departSpeed='10' />
<vehicle id='E_W_43' type='standard_car' route='E_W' depart='113' departLane='random' departSpeed='10' />
<vehicle id='W_E_44' type='standard_car' route='W_E' depart='116' departLane='random' departSpeed='10' />
<vehicle id='W_E_45' type='standard_car' route='W_E' depart='119' departLane='random' departSpeed='10' />
<vehicle id='W_N_46' type='standard_car' route='W_N' depart='119' departLane='random' departSpeed='10' />
<vehicle id='S_N_47' type='standard_car' route='S_N' depart='127' departLane='random' departSpeed='10' />
<vehicle id='S_W_48' type='standard_car' route='S_W' depart='127' departLane='random' departSpeed='10' />
<vehicle id='S_N_49' type='standard_car' route='S_N' depart='131' departLane='random' departSpeed='10' />
<vehicle id='S_N_50' type='standard_car' route='S_N' depart='133' departLane='random' departSpeed='10' />
<vehicle id='N_S_51' type='standard_car' route='N_S' depart='133' departLane='random' departSpeed='10' />
<vehicle id='S_N_52' type='standard_car' route='S_N' depart='136' departLane='random' departSpeed='10' />
<vehicle id='S_N_53' type='standard_car' route='S_N' depart='143' departLane='random' departSpeed='10' />
<vehicle id='S_N_54' type='standard_car' route='S_N' depart='148' departLane='random' departSpeed='10' />
<vehicle id='S_N_55' type='standard_car' route='S_N' depart='154' departLane='random' departSpeed='10' />
<vehicle id='S_W_56' type='standard_car' route='S_W' depart='154' departLane='random' departSpeed='10' />
<vehicle id='W_E_57' type='standard_car' route='W_E' depart='162' departLane='random' departSpeed='10' />
<vehicle id='S_N_58' type='standard_car' route='S_N' depart='175' departLane='random' departSpeed='10' />
<vehicle id='S_N_59' type='standard_car' route='S_N' depart='178' departLane='random' departSpeed='10' />
<vehicle id='S_W_60' type='standard_car' route='S_W' depart='178' departLane='random' departSpeed='10' />
<vehicle id='N_S_61' type='standard_car' route='N_S' depart='183' departLane='random' departSpeed='10' />
<vehicle id='S_N_62' type='standard_car' route='S_N' depart='183' departLane='random' departSpeed='10' />
<vehicle id='S_W_63' type='standard_car' route='S_W' depart='183' departLane='random' departSpeed='10' />
<vehicle id='N_S_64' type='standard_car' route='N_S' depart='185' departLane='random' departSpeed='10' />
<vehicle id='S_N_65' type='standard_car' route='S_N' depart='186' departLane='random' departSpeed='10' />
<vehicle id='N_S_66' type='standard_car' route='N_S' depart='186' departLane='random' departSpeed='10' />
<vehicle id='S_N_67' type='standard_car' route='S_N' depart='188' departLane='random' departSpeed='10' />
<vehicle id='S_N_68' type='standard_car' route='S_N' depart='191' departLane='random' departSpeed='10' />
<vehicle id='W_E_69' type='standard_car' route='W_E' depart='209' departLane='random' departSpeed='10' />
<vehicle id='W_E_70' type='standard_car' route='W_E' depart='215' departLane='random' departSpeed='10' />
<vehicle id='N_S_71' type='standard_car' route='N_S' depart='216' departLane='random' departSpeed='10' />
<vehicle id='S_N_72' type='standard_car' route='S_N' depart='217' departLane='random' departSpeed='10' />
<vehicle id='W_E_73' type='standard_car' route='W_E' depart='219' departLane='random' departSpeed='10' />
<vehicle id='W_E_74' type='standard_car' route='W_E' depart='242' departLane='random' departSpeed='10' />
<vehicle id='W_E_75' type='standard_car' route='W_E' depart='242' departLane='random' departSpeed='10' />
<vehicle id='W_N_76' type='standard_car' route='W_N' depart='242' departLane='random' departSpeed='10' />
<vehicle id='E_W_77' type='standard_car' route='E_W' depart='246' departLane='random' departSpeed='10' />
<vehicle id='E_S_78' type='standard_car' route='E_S' depart='246' departLane='random' departSpeed='10' />
<vehicle id='S_N_79' type='standard_car' route='S_N' depart='251' departLane='random' departSpeed='10' />
<vehicle id='E_W_80' type='standard_car' route='E_W' depart='252' departLane='random' departSpeed='10' />
<vehicle id='W_E_81' type='standard_car' route='W_E' depart='254' departLane='random' departSpeed='10' />
<vehicle id='W_E_82' type='standard_car' route='W_E' depart='257' departLane='random' departSpeed='10' />
<vehicle id='W_E_83' type='standard_car' route='W_E' depart='257' departLane='random' departSpeed='10' />
<vehicle id='E_W_84' type='standard_car' route='E_W' depart='259' departLane='random' departSpeed='10' />
<vehicle id='W_E_85' type='standard_car' route='W_E' depart='259' departLane='random' departSpeed='10' />
<vehicle id='W_N_86' type='standard_car' route='W_N' depart='259' departLane='random' departSpeed='10' />
<vehicle id='W_E_87' type='standard_car' route='W_E' depart='260' departLane='random' departSpeed='10' />
<vehicle id='W_E_88' type='standard_car' route='W_E' depart='262' departLane='random' departSpeed='10' />
<vehicle id='W_E_89' type='standard_car' route='W_E' depart='263' departLane='random' departSpeed='10' />
<vehicle id='W_E_90' type='standard_car' route='W_E' depart='264' departLane='random' departSpeed='10' />
<vehicle id='W_E_91' type='standard_car' route='W_E' depart='266' departLane='random' departSpeed='10' />
<vehicle id='W_E_92' type='standard_car' route='W_E' depart='269' departLane='random' departSpeed='10' />
<vehicle id='E_W_93' type='standard_car' route='E_W' depart='272' departLane='random' departSpeed='10' />
<vehicle id='W_E_94' type='standard_car' route='W_E' depart='273' departLane='random' departSpeed='10' />
<vehicle id='E_W_95' type='standard_car' route='E_W' depart='275' departLane='random' departSpeed='10' />
<vehicle id='W_E_96' type='standard_car' route='W_E' depart='278' departLane='random' departSpeed='10' />
<vehicle id='W_E_97' type='standard_car' route='W_E' depart='282' departLane='random' departSpeed='10' />
<vehicle id='W_E_98' type='standard_car' route='W_E' depart='295' departLane='random' departSpeed='10' />
<vehicle id='N_S_99' type='standard_car' route='N_S' depart='309' departLane='random' departSpeed='10' />
<vehicle id='W_E_100' type='standard_car' route='W_E' depart='309' departLane='random' departSpeed='10' />
<vehicle id='W_N_101' type='standard_car' route='W_N' depart='309' departLane='random' departSpeed='10' />
<vehicle id='N_S_102' type='standard_car' route='N_S' depart='312' departLane='random' departSpeed='10' />
<vehicle id='N_E_103' type='standard_car' route='N_E' depart='312' departLane='random' departSpeed='10' />
<vehicle id='S_N_104' type='standard_car' route='S_N' depart='316' departLane='random' departSpeed='10' />
<vehicle id='N_S_105' type='standard_car' route='N_S' depart='316' departLane='random' departSpeed='10' />
<vehicle id='N_E_106' type='standard_car' route='N_E' depart='316' departLane='random' departSpeed='10' />
<vehicle id='E_W_107' type='standard_car' route='E_W' depart='316' departLane='random' departSpeed='10' />
<vehicle id='S_N_108' type='standard_car' route='S_N' depart='322' departLane='random' departSpeed='10' />
<vehicle id='W_E_109' type='standard_car' route='W_E' depart='325' departLane='random' departSpeed='10' />
<vehicle id='W_E_110' type='standard_car' route='W_E' depart='327' departLane='random' departSpeed='10' />
<vehicle id='W_E_111' type='standard_car' route='W_E' depart='330' departLane='random' departSpeed='10' />
<vehicle id='S_N_112' type='standard_car' route='S_N' depart='332' departLane='random' departSpeed='10' />
<vehicle id='W_E_113' type='standard_car' route='W_E' depart='335' departLane='random' departSpeed='10' />
<vehicle id='N_S_114' type='standard_car' route='N_S' depart='336' departLane='random' departSpeed='10' />
<vehicle id='N_S_115' type='standard_car' route='N_S' depart='343' departLane='random' departSpeed='10' />
<vehicle id='N_S_116' type='standard_car' route='N_S' depart='350' departLane='random' departSpeed='10' />
<vehicle id='N_E_117' type='standard_car' route='N_E' depart='350' departLane='random' departSpeed='10' />
<vehicle id='S_N_118' type='standard_car' route='S_N' depart='353' departLane='random' departSpeed='10' />
<vehicle id='S_N_119' type='standard_car' route='S_N' depart='354' departLane='random' departSpeed='10' />
<vehicle id='N_S_120' type='standard_car' route='N_S' depart='354' departLane='random' departSpeed='10' />
<vehicle id='S_N_121' type='standard_car' route='S_N' depart='354' departLane='random' departSpeed='10' />
<vehicle id='S_W_122' type='standard_car' route='S_W' depart='354' departLane='random' departSpeed='10' />
<vehicle id='N_S_123' type='standard_car' route='N_S' depart='355' departLane='random' departSpeed='10' />
<vehicle id='S_N_124' type='standard_car' route='S_N' depart='357' departLane='random' departSpeed='10' />
<vehicle id='S_N_125' type='standard_car' route='S_N' depart='362' departLane='random' departSpeed='10' />
<vehicle id='N_S_126' type='standard_car' route='N_S' depart='362' departLane='random' departSpeed='10' />
<vehicle id='S_N_127' type='standard_car' route='S_N' depart='363' departLane='random' departSpeed='10' />
<vehicle id='E_W_128' type='standard_car' route='E_W' depart='389' departLane='random' departSpeed='10' />
<vehicle id='E_W_129' type='standard_car' route='E_W' depart='389' departLane='random' departSpeed='10' />
<vehicle id='E_W_130' type='standard_car' route='E_W' depart='390' departLane='random' departSpeed='10' />
<vehicle id='N_S_131' type='standard_car' route='N_S' depart='391' departLane='random' departSpeed='10' />
<vehicle id='N_E_132' type='standard_car' route='N_E' depart='391' departLane='random' departSpeed='10' />
<vehicle id='S_N_133' type='standard_car' route='S_N' depart='411' departLane='random' departSpeed='10' />
<vehicle id='E_W_134' type='standard_car' route='E_W' depart='420' departLane='random' departSpeed='10' />
<vehicle id='W_E_135' type='standard_car' route='W_E' depart='425' departLane='random' departSpeed='10' />
<vehicle id='W_E_136' type='standard_car' route='W_E' depart='425' departLane='random' departSpeed='10' />
<vehicle id='W_E_137' type='standard_car' route='W_E' depart='426' departLane='random' departSpeed='10' />
<vehicle id='E_W_138' type='standard_car' route='E_W' depart='428' departLane='random' departSpeed='10' />
<vehicle id='W_E_139' type='standard_car' route='W_E' depart='431' departLane='random' departSpeed='10' />
<vehicle id='E_W_140' type='standard_car' route='E_W' depart='432' departLane='random' departSpeed='10' />
<vehicle id='W_E_141' type='standard_car' route='W_E' depart='434' departLane='random' departSpeed='10' />
<vehicle id='W_E_142' type='standard_car' route='W_E' depart='435' departLane='random' departSpeed='10' />
<vehicle id='E_W_143' type='standard_car' route='E_W' depart='438' departLane='random' departSpeed='10' />
<vehicle id='S_N_144' type='standard_car' route='S_N' depart='444' departLane='random' departSpeed='10' />
<vehicle id='S_N_145' type='standard_car' route='S_N' depart='445' departLane='random' departSpeed='10' />
<vehicle id='E_W_146' type='standard_car' route='E_W' depart='446' departLane='random' departSpeed='10' />
<vehicle id='E_S_147' type='standard_car' route='E_S' depart='446' departLane='random' departSpeed='10' />
<vehicle id='W_E_148' type='standard_car' route='W_E' depart='447' departLane='random' departSpeed='10' />
<vehicle id='S_N_149' type='standard_car' route='S_N' depart='450' departLane='random' departSpeed='10' />
<vehicle id='E_W_150' type='standard_car' route='E_W' depart='450' departLane='random' departSpeed='10' />
<vehicle id='S_N_151' type='standard_car' route='S_N' depart='452' departLane='random' departSpeed='10' />
<vehicle id='W_E_152' type='standard_car' route='W_E' depart='452' departLane='random' departSpeed='10' />
<vehicle id='W_E_153' type='standard_car' route='W_E' depart='453' departLane='random' departSpeed='10' />
<vehicle id='W_E_154' type='standard_car' route='W_E' depart='453' departLane='random' departSpeed='10' />
<vehicle id='E_W_155' type='standard_car' route='E_W' depart='454' departLane='random' departSpeed='10' />
<vehicle id='S_N_156' type='standard_car' route='S_N' depart='459' departLane='random' departSpeed='10' />
<vehicle id='E_W_157' type='standard_car' route='E_W' depart='461' departLane='random' departSpeed='10' />
<vehicle id='E_W_158' type='standard_car' route='E_W' depart='463' departLane='random' departSpeed='10' />
<vehicle id='E_W_159' type='standard_car' route='E_W' depart='468' departLane='random' departSpeed='10' />
<vehicle id='W_E_160' type='standard_car' route='W_E' depart='470' departLane='random' departSpeed='10' />
<vehicle id='E_W_161' type='standard_car' route='E_W' depart='471' departLane='random' departSpeed='10' />
<vehicle id='E_S_162' type='standard_car' route='E_S' depart='471' departLane='random' departSpeed='10' />
<vehicle id='E_W_163' type='standard_car' route='E_W' depart='473' departLane='random' departSpeed='10' />
<vehicle id='W_E_164' type='standard_car' route='W_E' depart='475' departLane='random' departSpeed='10' />
<vehicle id='E_W_165' type='standard_car' route='E_W' depart='479' departLane='random' departSpeed='10' />
<vehicle id='S_N_166' type='standard_car' route='S_N' depart='489' departLane='random' departSpeed='10' />
<vehicle id='N_S_167' type='standard_car' route='N_S' depart='491' departLane='random' departSpeed='10' />
<vehicle id='S_N_168' type='standard_car' route='S_N' depart='494' departLane='random' departSpeed='10' />
<vehicle id='S_W_169' type='standard_car' route='S_W' depart='494' departLane='random' departSpeed='10' />
<vehicle id='W_E_170' type='standard_car' route='W_E' depart='500' departLane='random' departSpeed='10' />
<vehicle id='N_S_171' type='standard_car' route='N_S' depart='501' departLane='random' departSpeed='10' />
<vehicle id='W_E_172' type='standard_car' route='W_E' depart='501' departLane='random' departSpeed='10' />
<vehicle id='W_N_173' type='standard_car' route='W_N' depart='501' departLane='random' departSpeed='10' />
<vehicle id='W_E_174' type='standard_car' route='W_E' depart='503' departLane='random' departSpeed='10' />
<vehicle id='S_N_175' type='standard_car' route='S_N' depart='510' departLane='random' departSpeed='10' />
<vehicle id='W_E_176' type='standard_car' route='W_E' depart='516' departLane='random' departSpeed='10' />
<vehicle id='W_E_177' type='standard_car' route='W_E' depart='516' departLane='random' departSpeed='10' />
<vehicle id='E_W_178' type='standard_car' route='E_W' depart='518' departLane='random' departSpeed='10' />
<vehicle id='S_N_179' type='standard_car' route='S_N' depart='521' departLane='random' departSpeed='10' />
<vehicle id='S_W_180' type='standard_car' route='S_W' depart='521' departLane='random' departSpeed='10' />
<vehicle id='E_W_181' type='standard_car' route='E_W' depart='522' departLane='random' departSpeed='10' />
<vehicle id='S_N_182' type='standard_car' route='S_N' depart='522' departLane='random' departSpeed='10' />
<vehicle id='S_N_183' type='standard_car' route='S_N' depart='523' departLane='random' departSpeed='10' />
<vehicle id='N_S_184' type='standard_car' route='N_S' depart='525' departLane='random' departSpeed='10' />
<vehicle id='S_N_185' type='standard_car' route='S_N' depart='530' departLane='random' departSpeed='10' />
<vehicle id='S_N_186' type='standard_car' route='S_N' depart='534' departLane='random' departSpeed='10' />
<vehicle id='S_N_187' type='standard_car' route='S_N' depart='537' departLane='random' departSpeed='10' />
<vehicle id='S_W_188' type='standard_car' route='S_W' depart='537' departLane='random' departSpeed='10' />
<vehicle id='S_N_189' type='standard_car' route='S_N' depart='539' departLane='random' departSpeed='10' />
<vehicle id='S_W_190' type='standard_car' route='S_W' depart='539' departLane='random' departSpeed='10' />
<vehicle id='N_S_191' type='standard_car' route='N_S' depart='541' departLane='random' departSpeed='10' />
<vehicle id='N_S_192' type='standard_car' route='N_S' depart='544' departLane='random' departSpeed='10' />
<vehicle id='S_N_193' type='standard_car' route='S_N' depart='570' departLane='random' departSpeed='10' />
<vehicle id='E_W_194' type='standard_car' route='E_W' depart='576' departLane='random' departSpeed='10' />
<vehicle id='N_S_195' type='standard_car' route='N_S' depart='577' departLane='random' departSpeed='10' />
<vehicle id='E_W_196' type='standard_car' route='E_W' depart='581' departLane='random' departSpeed='10' />
<vehicle id='E_W_197' type='standard_car' route='E_W' depart='582' departLane='random' departSpeed='10' />
<vehicle id='N_S_198' type='standard_car' route='N_S' depart='582' departLane='random' departSpeed='10' />
<vehicle id='W_E_199' type='standard_car' route='W_E' depart='610' departLane='random' departSpeed='10' />
<vehicle id='W_E_200' type='standard_car' route='W_E' depart='614' departLane='random' departSpeed='10' />
<vehicle id='W_E_201' type='standard_car' route='W_E' depart='617' departLane='random' departSpeed='10' />
<vehicle id='E_W_202' type='standard_car' route='E_W' depart='617' departLane='random' departSpeed='10' />
<vehicle id='E_W_203' type='standard_car' route='E_W' depart='618' departLane='random' departSpeed='10' />
<vehicle id='W_E_204' type='standard_car' route='W_E' depart='620' departLane='random' departSpeed='10' />
<vehicle id='E_W_205' type='standard_car' route='E_W' depart='623' departLane='random' departSpeed='10' />
<vehicle id='W_E_206' type='standard_car' route='W_E' depart='623' departLane='random' departSpeed='10' />
<vehicle id='W_E_207' type='standard_car' route='W_E' depart='626' departLane='random' departSpeed='10' />
<vehicle id='W_E_208' type='standard_car' route='W_E' depart='628' departLane='random' departSpeed='10' />
<vehicle id='E_W_209' type='standard_car' route='E_W' depart='632' departLane='random' departSpeed='10' />
<vehicle id='E_W_210' type='standard_car' route='E_W' depart='634' departLane='random' departSpeed='10' />
<vehicle id='E_S_211' type='standard_car' route='E_S' depart='634' departLane='random' departSpeed='10' />
<vehicle id='E_W_212' type='standard_car' route='E_W' depart='635' departLane='random' departSpeed='10' />
<vehicle id='E_W_213' type='standard_car' route='E_W' depart='638' departLane='random' departSpeed='10' />
<vehicle id='W_E_214' type='standard_car' route='W_E' depart='642' departLane='random' departSpeed='10' />
<vehicle id='E_W_215' type='standard_car' route='E_W' depart='644' departLane='random' departSpeed='10' />
<vehicle id='E_S_216' type='standard_car' route='E_S' depart='644' departLane='random' departSpeed='10' />
<vehicle id='W_E_217' type='standard_car' route='W_E' depart='646' departLane='random' departSpeed='10' />
<vehicle id='W_N_218' type='standard_car' route='W_N' depart='646' departLane='random' departSpeed='10' />
<vehicle id='W_E_219' type='standard_car' route='W_E' depart='647' departLane='random' departSpeed='10' />
<vehicle id='E_W_220' type='standard_car' route='E_W' depart='649' departLane='random' departSpeed='10' />
<vehicle id='W_E_221' type='standard_car' route='W_E' depart='649' departLane='random' departSpeed='10' />
<vehicle id='W_N_222' type='standard_car' route='W_N' depart='649' departLane='random' departSpeed='10' />
<vehicle id='E_W_223' type='standard_car' route='E_W' depart='649' departLane='random' departSpeed='10' />
<vehicle id='W_E_224' type='standard_car' route='W_E' depart='651' departLane='random' departSpeed='10' />
<vehicle id='W_E_225' type='standard_car' route='W_E' depart='656' departLane='random' departSpeed='10' />
<vehicle id='N_S_226' type='standard_car' route='N_S' depart='672' departLane='random' departSpeed='10' />
<vehicle id='N_S_227' type='standard_car' route='N_S' depart='674' departLane='random' departSpeed='10' />
<vehicle id='E_W_228' type='standard_car' route='E_W' depart='674' departLane='random' departSpeed='10' />
<vehicle id='E_W_229' type='standard_car' route='E_W' depart='679' departLane='random' departSpeed='10' />
<vehicle id='S_N_230' type='standard_car' route='S_N' depart='680' departLane='random' departSpeed='10' />
<vehicle id='N_S_231' type='standard_car' route='N_S' depart='681' departLane='random' departSpeed='10' />
<vehicle id='N_S_232' type='standard_car' route='N_S' depart='681' departLane='random' departSpeed='10' />
<vehicle id='N_S_233' type='standard_car' route='N_S' depart='682' departLane='random' departSpeed='10' />
<vehicle id='W_E_234' type='standard_car' route='W_E' depart='683' departLane='random' departSpeed='10' />
<vehicle id='W_E_235' type='standard_car' route='W_E' depart='686' departLane='random' departSpeed='10' />
<vehicle id='S_N_236' type='standard_car' route='S_N' depart='689' departLane='random' departSpeed='10' />
<vehicle id='S_W_237' type='standard_car' route='S_W' depart='689' departLane='random' departSpeed='10' />
<vehicle id='N_S_238' type='standard_car' route='N_S' depart='690' departLane='random' departSpeed='10' />
<vehicle id='W_E_239' type='standard_car' route='W_E' depart='690' departLane='random' departSpeed='10' />
<vehicle id='S_N_240' type='standard_car' route='S_N' depart='720' departLane='random' departSpeed='10' />
<vehicle id='S_N_241' type='standard_car' route='S_N' depart='724' departLane='random' departSpeed='10' />
<vehicle id='N_S_242' type='standard_car' route='N_S' depart='728' departLane='random' departSpeed='10' />
<vehicle id='N_S_243' type='standard_car' route='N_S' depart='731' departLane='random' departSpeed='10' />
<vehicle id='S_N_244' type='standard_car' route='S_N' depart='753' departLane='random' departSpeed='10' />
<vehicle id='S_N_245' type='standard_car' route='S_N' depart='757' departLane='random' departSpeed='10' />
<vehicle id='W_E_246' type='standard_car' route='W_E' depart='760' departLane='random' departSpeed='10' />
<vehicle id='S_N_247' type='standard_car' route='S_N' depart='780' departLane='random' departSpeed='10' />
<vehicle id='E_W_248' type='standard_car' route='E_W' depart='782' departLane='random' departSpeed='10' />
<vehicle id='E_W_249' type='standard_car' route='E_W' depart='786' departLane='random' departSpeed='10' />
<vehicle id='W_E_250' type='standard_car' route='W_E' depart='786' departLane='random' departSpeed='10' />
<vehicle id='W_N_251' type='standard_car' route='W_N' depart='786' departLane='random' departSpeed='10' />
<vehicle id='E_W_252' type='standard_car' route='E_W' depart='787' departLane='random' departSpeed='10' />
<vehicle id='W_E_253' type='standard_car' route='W_E' depart='787' departLane='random' departSpeed='10' />
<vehicle id='E_W_254' type='standard_car' route='E_W' depart='789' departLane='random' departSpeed='10' />
<vehicle id='E_S_255' type='standard_car' route='E_S' depart='789' departLane='random' departSpeed='10' />
<vehicle id='E_W_256' type='standard_car' route='E_W' depart='790' departLane='random' departSpeed='10' />
<vehicle id='W_E_257' type='standard_car' route='W_E' depart='793' departLane='random' departSpeed='10' />
<vehicle id='E_W_258' type='standard_car' route='E_W' depart='794' departLane='random' departSpeed='10' />
<vehicle id='W_E_259' type='standard_car' route='W_E' depart='796' departLane='random' departSpeed='10' />
<vehicle id='E_W_260' type='standard_car' route='E_W' depart='797' departLane='random' departSpeed='10' />
<vehicle id='W_E_261' type='standard_car' route='W_E' depart='798' departLane='random' departSpeed='10' />
<vehicle id='W_E_262' type='standard_car' route='W_E' depart='800' departLane='random' departSpeed='10' />
<vehicle id='E_W_263' type='standard_car' route='E_W' depart='802' departLane='random' departSpeed='10' />
<vehicle id='E_W_264' type='standard_car' route='E_W' depart='804' departLane='random' departSpeed='10' />
<vehicle id='E_W_265' type='standard_car' route='E_W' depart='805' departLane='random' departSpeed='10' />
<vehicle id='W_E_266' type='standard_car' route='W_E' depart='809' departLane='random' departSpeed='10' />
<vehicle id='W_E_267' type='standard_car' route='W_E' depart='810' departLane='random' departSpeed='10' />
<vehicle id='N_S_268' type='standard_car' route='N_S' depart='810' departLane='random' departSpeed='10' />
<vehicle id='E_W_269' type='standard_car' route='E_W' depart='810' departLane='random' departSpeed='10' />
<vehicle id='E_W_270' type='standard_car' route='E_W' depart='812' departLane='random' departSpeed='10' />
<vehicle id='W_E_271' type='standard_car' route='W_E' depart='820' departLane='random' departSpeed='10' />
<vehicle id='W_E_272' type='standard_car' route='W_E' depart='821' departLane='random' departSpeed='10' />
<vehicle id='W_E_273' type='standard_car' route='W_E' depart='822' departLane='random' departSpeed='10' />
<vehicle id='W_E_274' type='standard_car' route='W_E' depart='823' departLane='random' departSpeed='10' />