<?xml version="1.0" encoding="UTF-8"?>

<!-- generated on 2022-04-15 20:45:09 by Eclipse SUMO netedit Version 1.10.0
<configuration xmlns:xsi="http://www.w3.org/2001/XMLSchema-instance" xsi:noNamespaceSchemaLocation="http://sumo.dlr.de/xsd/netconvertConfiguration.xsd">

    <input>
        <sumo-net-file value="E:\PycharmProject\TrafficControl202201\sumoNet\reality_network\net.net.xml"/>
    </input>

    <output>
        <output-file value="E:\PycharmProject\TrafficControl202201\sumoNet\reality_network\net.net.xml"/>
    </output>

    <processing>
        <geometry.min-radius.fix.railways value="false"/>
        <geometry.max-grade.fix value="false"/>
        <offset.disable-normalization value="true"/>
        <lefthand value="false"/>
    </processing>

    <junctions>
        <no-turnarounds value="true"/>
        <junctions.corner-detail value="5"/>
        <junctions.limit-turn-speed value="5.5"/>
        <rectangular-lane-cut value="false"/>
    </junctions>

    <pedestrian>
        <walkingareas value="false"/>
    </pedestrian>

    <report>
        <aggregate-warnings value="5"/>
    </report>

</configuration>
-->

<additional xmlns:xsi="http://www.w3.org/2001/XMLSchema-instance" xsi:noNamespaceSchemaLocation="http://sumo.dlr.de/xsd/additional_file.xsd">
    <tlLogic id="gneJ0" type="static" programID="0" offset="0">
        <phase duration="5" state="rrrrrrrrrrrrrrrrrrrr"/>
        <phase duration="30" state="rrrrrrrrGGrrrrrrrrGG"/>
        <phase duration="3" state="rrrrrrrryyrrrrrrrryy"/>
        <phase duration="30" state="rrrGGrrrrrrrrGGrrrrr"/>
        <phase duration="3" state="rrryyrrrrrrrryyrrrrr"/>
        <phase duration="30" state="rrrrrrGGrrrrrrrrGGrr"/>
        <phase duration="3" state="rrrrrryyrrrrrrrryyrr"/>
        <phase duration="30" state="rGGrrrrrrrrGGrrrrrrr"/>
        <phase duration="3" state="ryyrrrrrrrryyrrrrrrr"/>
        <phase duration="30" state="rrrrrrrrrrrrrrrrGGGG"/>
        <phase duration="3" state="rrrrrrrrrrrrrrrryyyy"/>
        <phase duration="30" state="rrrrrrGGGGrrrrrrrrrr"/>
        <phase duration="3" state="rrrrrryyyyrrrrrrrrrr"/>
        <phase duration="30" state="rrrrrrrrrrrGGGGrrrrr"/>
        <phase duration="3" state="rrrrrrrrrrryyyyrrrrr"/>
        <phase duration="30" state="rGGGGrrrrrrrrrrrrrrr"/>
        <phase duration="3" state="ryyyyrrrrrrrrrrrrrrr"/>
    </tlLogic>
</additional>
