<routes>
    <vType id="standard_car" length='5.0' maxSpeed='11.11' minGap='2.5' accel='2.0' decel='4.5' />
<route id='N_S' edges='road_1_2_3 road_1_1_3' />
<route id='N_E' edges='road_1_2_3 road_1_1_0' />
<route id='N_W' edges='road_1_2_3 road_1_1_2' />
<route id='S_N' edges='road_1_0_1 road_1_1_1' />
<route id='S_W' edges='road_1_0_1 road_1_1_2' />
<route id='S_E' edges='road_1_0_1 road_1_1_0' />
<route id='E_W' edges='road_2_1_2 road_1_1_2' />
<route id='E_S' edges='road_2_1_2 road_1_1_3' />
<route id='E_N' edges='road_2_1_2 road_1_1_1' />
<route id='W_E' edges='road_0_1_0 road_1_1_0' />
<route id='W_N' edges='road_0_1_0 road_1_1_1' />
<route id='W_S' edges='road_0_1_0 road_1_1_3' />
<vehicle id='W_E_0' type='standard_car' route='W_E' depart='0' departLane='random' departSpeed='10' />
<vehicle id='W_E_1' type='standard_car' route='W_E' depart='3' departLane='random' departSpeed='10' />
<vehicle id='W_E_2' type='standard_car' route='W_E' depart='8' departLane='random' departSpeed='10' />
<vehicle id='W_E_3' type='standard_car' route='W_E' depart='11' departLane='random' departSpeed='10' />
<vehicle id='S_N_4' type='standard_car' route='S_N' depart='14' departLane='random' departSpeed='10' />
<vehicle id='W_E_5' type='standard_car' route='W_E' depart='16' departLane='random' departSpeed='10' />
<vehicle id='N_S_6' type='standard_car' route='N_S' depart='16' departLane='random' departSpeed='10' />
<vehicle id='S_N_7' type='standard_car' route='S_N' depart='17' departLane='random' departSpeed='10' />
<vehicle id='S_N_8' type='standard_car' route='S_N' depart='18' departLane='random' departSpeed='10' />
<vehicle id='S_N_9' type='standard_car' route='S_N' depart='19' departLane='random' departSpeed='10' />
<vehicle id='W_E_10' type='standard_car' route='W_E' depart='22' departLane='random' departSpeed='10' />
<vehicle id='E_W_11' type='standard_car' route='E_W' depart='24' departLane='random' departSpeed='10' />
<vehicle id='E_S_12' type='standard_car' route='E_S' depart='24' departLane='random' departSpeed='10' />
<vehicle id='N_S_13' type='standard_car' route='N_S' depart='24' departLane='random' departSpeed='10' />
<vehicle id='W_E_14' type='standard_car' route='W_E' depart='26' departLane='random' departSpeed='10' />
<vehicle id='N_S_15' type='standard_car' route='N_S' depart='30' departLane='random' departSpeed='10' />
<vehicle id='W_E_16' type='standard_car' route='W_E' depart='31' departLane='random' departSpeed='10' />
<vehicle id='N_S_17' type='standard_car' route='N_S' depart='34' departLane='random' departSpeed='10' />
<vehicle id='W_E_18' type='standard_car' route='W_E' depart='35' departLane='random' departSpeed='10' />
<vehicle id='W_E_19' type='standard_car' route='W_E' depart='35' departLane='random' departSpeed='10' />
<vehicle id='S_N_20' type='standard_car' route='S_N' depart='39' departLane='random' departSpeed='10' />
<vehicle id='S_W_21' type='standard_car' route='S_W' depart='39' departLane='random' departSpeed='10' />
<vehicle id='S_N_22' type='standard_car' route='S_N' depart='41' departLane='random' departSpeed='10' />
<vehicle id='S_W_23' type='standard_car' route='S_W' depart='41' departLane='random' departSpeed='10' />
<vehicle id='W_E_24' type='standard_car' route='W_E' depart='41' departLane='random' departSpeed='10' />
<vehicle id='S_N_25' type='standard_car' route='S_N' depart='43' departLane='random' departSpeed='10' />
<vehicle id='S_W_26' type='standard_car' route='S_W' depart='43' departLane='random' departSpeed='10' />
<vehicle id='W_E_27' type='standard_car' route='W_E' depart='43' departLane='random' departSpeed='10' />
<vehicle id='N_S_28' type='standard_car' route='N_S' depart='44' departLane='random' departSpeed='10' />
<vehicle id='W_E_29' type='standard_car' route='W_E' depart='45' departLane='random' departSpeed='10' />
<vehicle id='N_S_30' type='standard_car' route='N_S' depart='46' departLane='random' departSpeed='10' />
<vehicle id='N_E_31' type='standard_car' route='N_E' depart='46' departLane='random' departSpeed='10' />
<vehicle id='S_N_32' type='standard_car' route='S_N' depart='47' departLane='random' departSpeed='10' />
<vehicle id='N_S_33' type='standard_car' route='N_S' depart='48' departLane='random' departSpeed='10' />
<vehicle id='S_N_34' type='standard_car' route='S_N' depart='49' departLane='random' departSpeed='10' />
<vehicle id='N_S_35' type='standard_car' route='N_S' depart='52' departLane='random' departSpeed='10' />
<vehicle id='S_N_36' type='standard_car' route='S_N' depart='52' departLane='random' departSpeed='10' />
<vehicle id='N_S_37' type='standard_car' route='N_S' depart='55' departLane='random' departSpeed='10' />
<vehicle id='S_N_38' type='standard_car' route='S_N' depart='55' departLane='random' departSpeed='10' />
<vehicle id='W_E_39' type='standard_car' route='W_E' depart='56' departLane='random' departSpeed='10' />
<vehicle id='S_N_40' type='standard_car' route='S_N' depart='66' departLane='random' departSpeed='10' />
<vehicle id='W_E_41' type='standard_car' route='W_E' depart='67' departLane='random' departSpeed='10' />
<vehicle id='W_E_42' type='standard_car' route='W_E' depart='75' departLane='random' departSpeed='10' />
<vehicle id='W_N_43' type='standard_car' route='W_N' depart='75' departLane='random' departSpeed='10' />
<vehicle id='W_E_44' type='standard_car' route='W_E' depart='77' departLane='random' departSpeed='10' />
<vehicle id='E_W_45' type='standard_car' route='E_W' depart='78' departLane='random' departSpeed='10' />
<vehicle id='E_W_46' type='standard_car' route='E_W' depart='78' departLane='random' departSpeed='10' />
<vehicle id='E_W_47' type='standard_car' route='E_W' depart='79' departLane='random' departSpeed='10' />
<vehicle id='E_W_48' type='standard_car' route='E_W' depart='80' departLane='random' departSpeed='10' />
<vehicle id='W_E_49' type='standard_car' route='W_E' depart='83' departLane='random' departSpeed='10' />
<vehicle id='E_W_50' type='standard_car' route='E_W' depart='85' departLane='random' departSpeed='10' />
<vehicle id='W_E_51' type='standard_car' route='W_E' depart='93' departLane='random' departSpeed='10' />
<vehicle id='W_E_52' type='standard_car' route='W_E' depart='95' departLane='random' departSpeed='10' />
<vehicle id='W_E_53' type='standard_car' route='W_E' depart='100' departLane='random' departSpeed='10' />
<vehicle id='W_E_54' type='standard_car' route='W_E' depart='104' departLane='random' departSpeed='10' />
<vehicle id='W_E_55' type='standard_car' route='W_E' depart='107' departLane='random' departSpeed='10' />
<vehicle id='S_N_56' type='standard_car' route='S_N' depart='109' departLane='random' departSpeed='10' />
<vehicle id='S_W_57' type='standard_car' route='S_W' depart='109' departLane='random' departSpeed='10' />
<vehicle id='W_E_58' type='standard_car' route='W_E' depart='111' departLane='random' departSpeed='10' />
<vehicle id='S_N_59' type='standard_car' route='S_N' depart='115' departLane='random' departSpeed='10' />
<vehicle id='S_W_60' type='standard_car' route='S_W' depart='115' departLane='random' departSpeed='10' />
<vehicle id='S_N_61' type='standard_car' route='S_N' depart='115' departLane='random' departSpeed='10' />
<vehicle id='W_E_62' type='standard_car' route='W_E' depart='117' departLane='random' departSpeed='10' />
<vehicle id='W_E_63' type='standard_car' route='W_E' depart='120' departLane='random' departSpeed='10' />
<vehicle id='W_E_64' type='standard_car' route='W_E' depart='122' departLane='random' departSpeed='10' />
<vehicle id='W_N_65' type='standard_car' route='W_N' depart='122' departLane='random' departSpeed='10' />
<vehicle id='S_N_66' type='standard_car' route='S_N' depart='124' departLane='random' departSpeed='10' />
<vehicle id='W_E_67' type='standard_car' route='W_E' depart='126' departLane='random' departSpeed='10' />
<vehicle id='E_W_68' type='standard_car' route='E_W' depart='128' departLane='random' departSpeed='10' />
<vehicle id='E_W_69' type='standard_car' route='E_W' depart='131' departLane='random' departSpeed='10' />
<vehicle id='N_S_70' type='standard_car' route='N_S' depart='131' departLane='random' departSpeed='10' />
<vehicle id='W_E_71' type='standard_car' route='W_E' depart='133' departLane='random' departSpeed='10' />
<vehicle id='E_W_72' type='standard_car' route='E_W' depart='134' departLane='random' departSpeed='10' />
<vehicle id='N_S_73' type='standard_car' route='N_S' depart='134' departLane='random' departSpeed='10' />
<vehicle id='E_W_74' type='standard_car' route='E_W' depart='136' departLane='random' departSpeed='10' />
<vehicle id='W_E_75' type='standard_car' route='W_E' depart='136' departLane='random' departSpeed='10' />
<vehicle id='W_E_76' type='standard_car' route='W_E' depart='141' departLane='random' departSpeed='10' />
<vehicle id='S_N_77' type='standard_car' route='S_N' depart='144' departLane='random' departSpeed='10' />
<vehicle id='W_E_78' type='standard_car' route='W_E' depart='146' departLane='random' departSpeed='10' />
<vehicle id='S_N_79' type='standard_car' route='S_N' depart='151' departLane='random' departSpeed='10' />
<vehicle id='S_N_80' type='standard_car' route='S_N' depart='152' departLane='random' departSpeed='10' />
<vehicle id='E_W_81' type='standard_car' route='E_W' depart='153' departLane='random' departSpeed='10' />
<vehicle id='W_E_82' type='standard_car' route='W_E' depart='153' departLane='random' departSpeed='10' />
<vehicle id='S_N_83' type='standard_car' route='S_N' depart='154' departLane='random' departSpeed='10' />
<vehicle id='N_S_84' type='standard_car' route='N_S' depart='154' departLane='random' departSpeed='10' />
<vehicle id='E_W_85' type='standard_car' route='E_W' depart='154' departLane='random' departSpeed='10' />
<vehicle id='W_E_86' type='standard_car' route='W_E' depart='155' departLane='random' departSpeed='10' />
<vehicle id='W_N_87' type='standard_car' route='W_N' depart='155' departLane='random' departSpeed='10' />
<vehicle id='N_S_88' type='standard_car' route='N_S' depart='155' departLane='random' departSpeed='10' />
<vehicle id='E_W_89' type='standard_car' route='E_W' depart='156' departLane='random' departSpeed='10' />
<vehicle id='W_E_90' type='standard_car' route='W_E' depart='157' departLane='random' departSpeed='10' />
<vehicle id='W_N_91' type='standard_car' route='W_N' depart='157' departLane='random' departSpeed='10' />
<vehicle id='S_N_92' type='standard_car' route='S_N' depart='158' departLane='random' departSpeed='10' />
<vehicle id='W_E_93' type='standard_car' route='W_E' depart='159' departLane='random' departSpeed='10' />
<vehicle id='S_N_94' type='standard_car' route='S_N' depart='160' departLane='random' departSpeed='10' />
<vehicle id='W_E_95' type='standard_car' route='W_E' depart='163' departLane='random' departSpeed='10' />
<vehicle id='S_N_96' type='standard_car' route='S_N' depart='163' departLane='random' departSpeed='10' />
<vehicle id='W_E_97' type='standard_car' route='W_E' depart='167' departLane='random' departSpeed='10' />
<vehicle id='W_N_98' type='standard_car' route='W_N' depart='167' departLane='random' departSpeed='10' />
<vehicle id='S_N_99' type='standard_car' route='S_N' depart='168' departLane='random' departSpeed='10' />
<vehicle id='W_E_100' type='standard_car' route='W_E' depart='169' departLane='random' departSpeed='10' />
<vehicle id='W_E_101' type='standard_car' route='W_E' depart='169' departLane='random' departSpeed='10' />
<vehicle id='S_N_102' type='standard_car' route='S_N' depart='170' departLane='random' departSpeed='10' />
<vehicle id='W_E_103' type='standard_car' route='W_E' depart='172' departLane='random' departSpeed='10' />
<vehicle id='W_E_104' type='standard_car' route='W_E' depart='173' departLane='random' departSpeed='10' />
<vehicle id='S_N_105' type='standard_car' route='S_N' depart='175' departLane='random' departSpeed='10' />
<vehicle id='S_N_106' type='standard_car' route='S_N' depart='175' departLane='random' departSpeed='10' />
<vehicle id='S_W_107' type='standard_car' route='S_W' depart='175' departLane='random' departSpeed='10' />
<vehicle id='N_S_108' type='standard_car' route='N_S' depart='176' departLane='random' departSpeed='10' />
<vehicle id='W_E_109' type='standard_car' route='W_E' depart='178' departLane='random' departSpeed='10' />
<vehicle id='W_N_110' type='standard_car' route='W_N' depart='178' departLane='random' departSpeed='10' />
<vehicle id='S_N_111' type='standard_car' route='S_N' depart='182' departLane='random' departSpeed='10' />
<vehicle id='W_E_112' type='standard_car' route='W_E' depart='184' departLane='random' departSpeed='10' />
<vehicle id='N_S_113' type='standard_car' route='N_S' depart='189' departLane='random' departSpeed='10' />
<vehicle id='W_E_114' type='standard_car' route='W_E' depart='189' departLane='random' departSpeed='10' />
<vehicle id='S_N_115' type='standard_car' route='S_N' depart='189' departLane='random' departSpeed='10' />
<vehicle id='N_S_116' type='standard_car' route='N_S' depart='193' departLane='random' departSpeed='10' />
<vehicle id='S_N_117' type='standard_car' route='S_N' depart='194' departLane='random' departSpeed='10' />
<vehicle id='N_S_118' type='standard_car' route='N_S' depart='195' departLane='random' departSpeed='10' />
<vehicle id='N_E_119' type='standard_car' route='N_E' depart='195' departLane='random' departSpeed='10' />
<vehicle id='S_N_120' type='standard_car' route='S_N' depart='197' departLane='random' departSpeed='10' />
<vehicle id='S_W_121' type='standard_car' route='S_W' depart='197' departLane='random' departSpeed='10' />
<vehicle id='S_N_122' type='standard_car' route='S_N' depart='198' departLane='random' departSpeed='10' />
<vehicle id='N_S_123' type='standard_car' route='N_S' depart='198' departLane='random' departSpeed='10' />
<vehicle id='W_E_124' type='standard_car' route='W_E' depart='198' departLane='random' departSpeed='10' />
<vehicle id='W_E_125' type='standard_car' route='W_E' depart='199' departLane='random' departSpeed='10' />
<vehicle id='W_E_126' type='standard_car' route='W_E' depart='204' departLane='random' departSpeed='10' />
<vehicle id='S_N_127' type='standard_car' route='S_N' depart='208' departLane='random' departSpeed='10' />
<vehicle id='S_W_128' type='standard_car' route='S_W' depart='208' departLane='random' departSpeed='10' />
<vehicle id='S_N_129' type='standard_car' route='S_N' depart='209' departLane='random' departSpeed='10' />
<vehicle id='S_N_130' type='standard_car' route='S_N' depart='210' departLane='random' departSpeed='10' />
<vehicle id='N_S_131' type='standard_car' route='N_S' depart='213' departLane='random' departSpeed='10' />
<vehicle id='S_N_132' type='standard_car' route='S_N' depart='215' departLane='random' departSpeed='10' />
<vehicle id='N_S_133' type='standard_car' route='N_S' depart='215' departLane='random' departSpeed='10' />
<vehicle id='S_N_134' type='standard_car' route='S_N' depart='215' departLane='random' departSpeed='10' />
<vehicle id='S_N_135' type='standard_car' route='S_N' depart='219' departLane='random' departSpeed='10' />
<vehicle id='S_N_136' type='standard_car' route='S_N' depart='223' departLane='random' departSpeed='10' />
<vehicle id='W_E_137' type='standard_car' route='W_E' depart='236' departLane='random' departSpeed='10' />
<vehicle id='W_N_138' type='standard_car' route='W_N' depart='236' departLane='random' departSpeed='10' />
<vehicle id='S_N_139' type='standard_car' route='S_N' depart='237' departLane='random' departSpeed='10' />
<vehicle id='S_W_140' type='standard_car' route='S_W' depart='237' departLane='random' departSpeed='10' />
<vehicle id='E_W_141' type='standard_car' route='E_W' depart='246' departLane='random' departSpeed='10' />
<vehicle id='E_W_142' type='standard_car' route='E_W' depart='247' departLane='random' departSpeed='10' />
<vehicle id='W_E_143' type='standard_car' route='W_E' depart='249' departLane='random' departSpeed='10' />
<vehicle id='E_W_144' type='standard_car' route='E_W' depart='252' departLane='random' departSpeed='10' />
<vehicle id='W_E_145' type='standard_car' route='W_E' depart='265' departLane='random' departSpeed='10' />
<vehicle id='E_W_146' type='standard_car' route='E_W' depart='267' departLane='random' departSpeed='10' />
<vehicle id='E_W_147' type='standard_car' route='E_W' depart='268' departLane='random' departSpeed='10' />
<vehicle id='E_W_148' type='standard_car' route='E_W' depart='272' departLane='random' departSpeed='10' />
<vehicle id='E_W_149' type='standard_car' route='E_W' depart='278' departLane='random' departSpeed='10' />
<vehicle id='E_W_150' type='standard_car' route='E_W' depart='278' departLane='random' departSpeed='10' />
<vehicle id='W_E_151' type='standard_car' route='W_E' depart='280' departLane='random' departSpeed='10' />
<vehicle id='E_W_152' type='standard_car' route='E_W' depart='286' departLane='random' departSpeed='10' />
<vehicle id='S_N_153' type='standard_car' route='S_N' depart='291' departLane='random' departSpeed='10' />
<vehicle id='S_N_154' type='standard_car' route='S_N' depart='293' departLane='random' departSpeed='10' />
<vehicle id='S_N_155' type='standard_car' route='S_N' depart='295' departLane='random' departSpeed='10' />
<vehicle id='S_N_156' type='standard_car' route='S_N' depart='296' departLane='random' departSpeed='10' />
<vehicle id='S_N_157' type='standard_car' route='S_N' depart='297' departLane='random' departSpeed='10' />
<vehicle id='S_W_158' type='standard_car' route='S_W' depart='297' departLane='random' departSpeed='10' />
<vehicle id='E_W_159' type='standard_car' route='E_W' depart='300' departLane='random' departSpeed='10' />
<vehicle id='E_S_160' type='standard_car' route='E_S' depart='300' departLane='random' departSpeed='10' />
<vehicle id='W_E_161' type='standard_car' route='W_E' depart='311' departLane='random' departSpeed='10' />
<vehicle id='S_N_162' type='standard_car' route='S_N' depart='313' departLane='random' departSpeed='10' />
<vehicle id='N_S_163' type='standard_car' route='N_S' depart='316' departLane='random' departSpeed='10' />
<vehicle id='S_N_164' type='standard_car' route='S_N' depart='319' departLane='random' departSpeed='10' />
<vehicle id='E_W_165' type='standard_car' route='E_W' depart='321' departLane='random' departSpeed='10' />
<vehicle id='N_S_166' type='standard_car' route='N_S' depart='322' departLane='random' departSpeed='10' />
<vehicle id='N_S_167' type='standard_car' route='N_S' depart='323' departLane='random' departSpeed='10' />
<vehicle id='E_W_168' type='standard_car' route='E_W' depart='327' departLane='random' departSpeed='10' />
<vehicle id='E_W_169' type='standard_car' route='E_W' depart='329' departLane='random' departSpeed='10' />
<vehicle id='E_S_170' type='standard_car' route='E_S' depart='329' departLane='random' departSpeed='10' />
<vehicle id='E_W_171' type='standard_car' route='E_W' depart='330' departLane='random' departSpeed='10' />
<vehicle id='W_E_172' type='standard_car' route='W_E' depart='330' departLane='random' departSpeed='10' />
<vehicle id='W_N_173' type='standard_car' route='W_N' depart='330' departLane='random' departSpeed='10' />
<vehicle id='S_N_174' type='standard_car' route='S_N' depart='334' departLane='random' departSpeed='10' />
<vehicle id='E_W_175' type='standard_car' route='E_W' depart='336' departLane='random' departSpeed='10' />
<vehicle id='S_N_176' type='standard_car' route='S_N' depart='336' departLane='random' departSpeed='10' />
<vehicle id='E_W_177' type='standard_car' route='E_W' depart='337' departLane='random' departSpeed='10' />
<vehicle id='E_W_178' type='standard_car' route='E_W' depart='340' departLane='random' departSpeed='10' />
<vehicle id='W_E_179' type='standard_car' route='W_E' depart='340' departLane='random' departSpeed='10' />
<vehicle id='S_N_180' type='standard_car' route='S_N' depart='342' departLane='random' departSpeed='10' />
<vehicle id='W_E_181' type='standard_car' route='W_E' depart='344' departLane='random' departSpeed='10' />
<vehicle id='N_S_182' type='standard_car' route='N_S' depart='344' departLane='random' departSpeed='10' />
<vehicle id='W_E_183' type='standard_car' route='W_E' depart='354' departLane='random' departSpeed='10' />
<vehicle id='N_S_184' type='standard_car' route='N_S' depart='356' departLane='random' departSpeed='10' />
<vehicle id='N_E_185' type='standard_car' route='N_E' depart='356' departLane='random' departSpeed='10' />
<vehicle id='N_S_186' type='standard_car' route='N_S' depart='356' departLane='random' departSpeed='10' />
<vehicle id='S_N_187' type='standard_car' route='S_N' depart='360' departLane='random' departSpeed='10' />
<vehicle id='N_S_188' type='standard_car' route='N_S' depart='360' departLane='random' departSpeed='10' />
<vehicle id='N_S_189' type='standard_car' route='N_S' depart='361' departLane='random' departSpeed='10' />
<vehicle id='N_E_190' type='standard_car' route='N_E' depart='361' departLane='random' departSpeed='10' />
<vehicle id='W_E_191' type='standard_car' route='W_E' depart='361' departLane='random' departSpeed='10' />
<vehicle id='N_S_192' type='standard_car' route='N_S' depart='362' departLane='random' departSpeed='10' />
<vehicle id='N_S_193' type='standard_car' route='N_S' depart='364' departLane='random' departSpeed='10' />
<vehicle id='W_E_194' type='standard_car' route='W_E' depart='364' departLane='random' departSpeed='10' />
<vehicle id='N_S_195' type='standard_car' route='N_S' depart='366' departLane='random' departSpeed='10' />
<vehicle id='S_N_196' type='standard_car' route='S_N' depart='366' departLane='random' departSpeed='10' />
<vehicle id='S_W_197' type='standard_car' route='S_W' depart='366' departLane='random' departSpeed='10' />
<vehicle id='W_E_198' type='standard_car' route='W_E' depart='367' departLane='random' departSpeed='10' />
<vehicle id='W_N_199' type='standard_car' route='W_N' depart='367' departLane='random' departSpeed='10' />
<vehicle id='N_S_200' type='standard_car' route='N_S' depart='369' departLane='random' departSpeed='10' />
<vehicle id='N_E_201' type='standard_car' route='N_E' depart='369' departLane='random' departSpeed='10' />
<vehicle id='N_S_202' type='standard_car' route='N_S' depart='371' departLane='random' departSpeed='10' />
<vehicle id='N_E_203' type='standard_car' route='N_E' depart='371' departLane='random' departSpeed='10' />
<vehicle id='W_E_204' type='standard_car' route='W_E' depart='372' departLane='random' departSpeed='10' />
<vehicle id='N_S_205' type='standard_car' route='N_S' depart='374' departLane='random' departSpeed='10' />
<vehicle id='N_S_206' type='standard_car' route='N_S' depart='376' departLane='random' departSpeed='10' />
<vehicle id='N_S_207' type='standard_car' route='N_S' depart='378' departLane='random' departSpeed='10' />
<vehicle id='N_S_208' type='standard_car' route='N_S' depart='378' departLane='random' departSpeed='10' />
<vehicle id='W_E_209' type='standard_car' route='W_E' depart='379' departLane='random' departSpeed='10' />
<vehicle id='S_N_210' type='standard_car' route='S_N' depart='382' departLane='random' departSpeed='10' />
<vehicle id='W_E_211' type='standard_car' route='W_E' depart='389' departLane='random' departSpeed='10' />
<vehicle id='S_N_212' type='standard_car' route='S_N' depart='389' departLane='random' departSpeed='10' />
<vehicle id='S_N_213' type='standard_car' route='S_N' depart='391' departLane='random' departSpeed='10' />
<vehicle id='S_W_214' type='standard_car' route='S_W' depart='391' departLane='random' departSpeed='10' />
<vehicle id='S_N_215' type='standard_car' route='S_N' depart='392' departLane='random' departSpeed='10' />
<vehicle id='S_N_216' type='standard_car' route='S_N' depart='393' departLane='random' departSpeed='10' />
<vehicle id='S_N_217' type='standard_car' route='S_N' depart='396' departLane='random' departSpeed='10' />
<vehicle id='S_N_218' type='standard_car' route='S_N' depart='398' departLane='random' departSpeed='10' />
<vehicle id='S_N_219' type='standard_car' route='S_N' depart='400' departLane='random' departSpeed='10' />
<vehicle id='N_S_220' type='standard_car' route='N_S' depart='401' departLane='random' departSpeed='10' />
<vehicle id='S_N_221' type='standard_car' route='S_N' depart='401' departLane='random' departSpeed='10' />
<vehicle id='N_S_222' type='standard_car' route='N_S' depart='402' departLane='random' departSpeed='10' />
<vehicle id='S_N_223' type='standard_car' route='S_N' depart='403' departLane='random' departSpeed='10' />
<vehicle id='N_S_224' type='standard_car' route='N_S' depart='404' departLane='random' departSpeed='10' />
<vehicle id='N_S_225' type='standard_car' route='N_S' depart='405' departLane='random' departSpeed='10' />
<vehicle id='N_E_226' type='standard_car' route='N_E' depart='405' departLane='random' departSpeed='10' />
<vehicle id='S_N_227' type='standard_car' route='S_N' depart='405' departLane='random' departSpeed='10' />
<vehicle id='N_S_228' type='standard_car' route='N_S' depart='407' departLane='random' departSpeed='10' />
<vehicle id='S_N_229' type='standard_car' route='S_N' depart='408' departLane='random' departSpeed='10' />
<vehicle id='S_N_230' type='standard_car' route='S_N' depart='412' departLane='random' departSpeed='10' />
<vehicle id='S_W_231' type='standard_car' route='S_W' depart='412' departLane='random' departSpeed='10' />
<vehicle id='S_N_232' type='standard_car' route='S_N' depart='415' departLane='random' departSpeed='10' />
<vehicle id='W_E_233' type='standard_car' route='W_E' depart='416' departLane='random' departSpeed='10' />
<vehicle id='N_S_234' type='standard_car' route='N_S' depart='421' departLane='random' departSpeed='10' />
<vehicle id='S_N_235' type='standard_car' route='S_N' depart='432' departLane='random' departSpeed='10' />
<vehicle id='E_W_236' type='standard_car' route='E_W' depart='445' departLane='random' departSpeed='10' />
<vehicle id='W_E_237' type='standard_car' route='W_E' depart='448' departLane='random' departSpeed='10' />
<vehicle id='E_W_238' type='standard_car' route='E_W' depart='449' departLane='random' departSpeed='10' />
<vehicle id='W_E_239' type='standard_car' route='W_E' depart='450' departLane='random' departSpeed='10' />
<vehicle id='W_E_240' type='standard_car' route='W_E' depart='453' departLane='random' departSpeed='10' />
<vehicle id='W_E_241' type='standard_car' route='W_E' depart='453' departLane='random' departSpeed='10' />
<vehicle id='W_E_242' type='standard_car' route='W_E' depart='455' departLane='random' departSpeed='10' />
<vehicle id='E_W_243' type='standard_car' route='E_W' depart='455' departLane='random' departSpeed='10' />
<vehicle id='E_W_244' type='standard_car' route='E_W' depart='456' departLane='random' departSpeed='10' />
<vehicle id='W_E_245' type='standard_car' route='W_E' depart='457' departLane='random' departSpeed='10' />
<vehicle id='E_W_246' type='standard_car' route='E_W' depart='458' departLane='random' departSpeed='10' />
<vehicle id='E_W_247' type='standard_car' route='E_W' depart='458' departLane='random' departSpeed='10' />
<vehicle id='W_E_248' type='standard_car' route='W_E' depart='459' departLane='random' departSpeed='10' />
<vehicle id='W_E_249' type='standard_car' route='W_E' depart='461' departLane='random' departSpeed='10' />
<vehicle id='E_W_250' type='standard_car' route='E_W' depart='461' departLane='random' departSpeed='10' />
<vehicle id='E_S_251' type='standard_car' route='E_S' depart='461' departLane='random' departSpeed='10' />
<vehicle id='W_E_252' type='standard_car' route='W_E' depart='464' departLane='random' departSpeed='10' />
<vehicle id='W_E_253' type='standard_car' route='W_E' depart='467' departLane='random' departSpeed='10' />
<vehicle id='W_E_254' type='standard_car' route='W_E' depart='469' departLane='random' departSpeed='10' />
<vehicle id='W_N_255' type='standard_car' route='W_N' depart='469' departLane='random' departSpeed='10' />
<vehicle id='W_E_256' type='standard_car' route='W_E' depart='469' departLane='random' departSpeed='10' />
<vehicle id='W_N_257' type='standard_car' route='W_N' depart='469' departLane='random' departSpeed='10' />
<vehicle id='E_W_258' type='standard_car' route='E_W' depart='471' departLane='random' departSpeed='10' />
<vehicle id='S_N_259' type='standard_car' route='S_N' depart='475' departLane='random' departSpeed='10' />
<vehicle id='E_W_260' type='standard_car' route='E_W' depart='476' departLane='random' departSpeed='10' />
<vehicle id='E_S_261' type='standard_car' route='E_S' depart='476' departLane='random' departSpeed='10' />
<vehicle id='W_E_262' type='standard_car' route='W_E' depart='478' departLane='random' departSpeed='10' />
<vehicle id='W_N_263' type='standard_car' route='W_N' depart='478' departLane='random' departSpeed='10' />
<vehicle id='S_N_264' type='standard_car' route='S_N' depart='484' departLane='random' departSpeed='10' />
<vehicle id='W_E_265' type='standard_car' route='W_E' depart='484' departLane='random' departSpeed='10' />
<vehicle id='W_E_266' type='standard_car' route='W_E' depart='486' departLane='random' departSpeed='10' />
<vehicle id='S_N_267' type='standard_car' route='S_N' depart='497' departLane='random' departSpeed='10' />
<vehicle id='N_S_268' type='standard_car' route='N_S' depart='502' departLane='random' departSpeed='10' />
<vehicle id='E_W_269' type='standard_car' route='E_W' depart='502' departLane='random' departSpeed='10' />
<vehicle id='N_S_270' type='standard_car' route='N_S' depart='503' departLane='random' departSpeed='10' />
<vehicle id='N_E_271' type='standard_car' route='N_E' depart='503' departLane='random' departSpeed='10' />
<vehicle id='S_N_272' type='standard_car' route='S_N' depart='504' departLane='random' departSpeed='10' />
<vehicle id='N_S_273' type='standard_car' route='N_S' depart='505' departLane='random' departSpeed='10' />
<vehicle id='S_N_274' type='standard_car' route='S_N' depart='509' departLane='random' departSpeed='10' />