<routes>
    <vType id="standard_car" length="5.0" maxSpeed="15" minGap="2.5" accel="2.0" decel="4.5" />
    <route id="N_S" edges="road_1_2_3 road_1_1_3"/>
    <route id="N_E" edges="road_1_2_3 road_1_1_0"/>
    <route id="N_W" edges="road_1_2_3 road_1_1_2"/>
    <route id="S_W" edges="road_1_0_1 road_1_1_2"/>
    <route id="S_E" edges="road_1_0_1 road_1_1_0"/>
    <route id="S_N" edges="road_1_0_1 road_1_1_1"/>

    <route id="W_E" edges="road_0_1_0 road_1_1_0"/>
    <route id="W_N" edges="road_0_1_0 road_1_1_1"/>
    <route id="W_S" edges="road_0_1_0 road_1_1_3"/>
    <route id="E_N" edges="road_2_1_2 road_1_1_1"/>
    <route id="E_S" edges="road_2_1_2 road_1_1_3"/>
    <route id="E_W" edges="road_2_1_2 road_1_1_2"/>
            
    <vehicle id='E_W_0' type='standard_car' route='E_W' depart='6.0' departLane='random' departSpeed='10' />
    <vehicle id='E_N_1' type='standard_car' route='E_N' depart='26.0' departLane='random' departSpeed='10' />
    <vehicle id='W_S_2' type='standard_car' route='W_S' depart='36.0' departLane='random' departSpeed='10' />
    <vehicle id='N_W_3' type='standard_car' route='N_W' depart='57.0' departLane='random' departSpeed='10' />
    <vehicle id='W_S_4' type='standard_car' route='W_S' depart='70.0' departLane='random' departSpeed='10' />
    <vehicle id='N_S_5' type='standard_car' route='N_S' depart='71.0' departLane='random' departSpeed='10' />
    <vehicle id='N_S_6' type='standard_car' route='N_S' depart='72.0' departLane='random' departSpeed='10' />
    <vehicle id='W_E_7' type='standard_car' route='W_E' depart='76.0' departLane='random' departSpeed='10' />
    <vehicle id='S_N_8' type='standard_car' route='S_N' depart='89.0' departLane='random' departSpeed='10' />
    <vehicle id='S_E_9' type='standard_car' route='S_E' depart='89.0' departLane='random' departSpeed='10' />
    <vehicle id='N_S_10' type='standard_car' route='N_S' depart='98.0' departLane='random' departSpeed='10' />
    <vehicle id='S_E_11' type='standard_car' route='S_E' depart='100.0' departLane='random' departSpeed='10' />
    <vehicle id='S_N_12' type='standard_car' route='S_N' depart='106.0' departLane='random' departSpeed='10' />
    <vehicle id='S_E_13' type='standard_car' route='S_E' depart='108.0' departLane='random' departSpeed='10' />
    <vehicle id='W_E_14' type='standard_car' route='W_E' depart='118.0' departLane='random' departSpeed='10' />
    <vehicle id='N_S_15' type='standard_car' route='N_S' depart='124.0' departLane='random' departSpeed='10' />
    <vehicle id='N_S_16' type='standard_car' route='N_S' depart='125.0' departLane='random' departSpeed='10' />
    <vehicle id='W_E_17' type='standard_car' route='W_E' depart='134.0' departLane='random' departSpeed='10' />
    <vehicle id='S_E_18' type='standard_car' route='S_E' depart='137.0' departLane='random' departSpeed='10' />
    <vehicle id='W_S_19' type='standard_car' route='W_S' depart='137.0' departLane='random' departSpeed='10' />
    <vehicle id='S_N_20' type='standard_car' route='S_N' depart='137.0' departLane='random' departSpeed='10' />
    <vehicle id='N_S_21' type='standard_car' route='N_S' depart='140.0' departLane='random' departSpeed='10' />
    <vehicle id='W_S_22' type='standard_car' route='W_S' depart='143.0' departLane='random' departSpeed='10' />
    <vehicle id='W_S_23' type='standard_car' route='W_S' depart='143.0' departLane='random' departSpeed='10' />
    <vehicle id='W_S_24' type='standard_car' route='W_S' depart='144.0' departLane='random' departSpeed='10' />
    <vehicle id='E_W_25' type='standard_car' route='E_W' depart='147.0' departLane='random' departSpeed='10' />
    <vehicle id='N_S_26' type='standard_car' route='N_S' depart='148.0' departLane='random' departSpeed='10' />
    <vehicle id='N_S_27' type='standard_car' route='N_S' depart='149.0' departLane='random' departSpeed='10' />
    <vehicle id='S_E_28' type='standard_car' route='S_E' depart='153.0' departLane='random' departSpeed='10' />
    <vehicle id='S_N_29' type='standard_car' route='S_N' depart='159.0' departLane='random' departSpeed='10' />
    <vehicle id='E_W_30' type='standard_car' route='E_W' depart='159.0' departLane='random' departSpeed='10' />
    <vehicle id='S_E_31' type='standard_car' route='S_E' depart='169.0' departLane='random' departSpeed='10' />
    <vehicle id='S_N_32' type='standard_car' route='S_N' depart='170.0' departLane='random' departSpeed='10' />
    <vehicle id='S_E_33' type='standard_car' route='S_E' depart='172.0' departLane='random' departSpeed='10' />
    <vehicle id='E_W_34' type='standard_car' route='E_W' depart='174.0' departLane='random' departSpeed='10' />
    <vehicle id='N_S_35' type='standard_car' route='N_S' depart='175.0' departLane='random' departSpeed='10' />
    <vehicle id='N_W_36' type='standard_car' route='N_W' depart='179.0' departLane='random' departSpeed='10' />
    <vehicle id='S_N_37' type='standard_car' route='S_N' depart='179.0' departLane='random' departSpeed='10' />
    <vehicle id='N_S_38' type='standard_car' route='N_S' depart='180.0' departLane='random' departSpeed='10' />
    <vehicle id='E_W_39' type='standard_car' route='E_W' depart='180.0' departLane='random' departSpeed='10' />
    <vehicle id='E_W_40' type='standard_car' route='E_W' depart='181.0' departLane='random' departSpeed='10' />
    <vehicle id='S_E_41' type='standard_car' route='S_E' depart='183.0' departLane='random' departSpeed='10' />
    <vehicle id='W_S_42' type='standard_car' route='W_S' depart='183.0' departLane='random' departSpeed='10' />
    <vehicle id='W_S_43' type='standard_car' route='W_S' depart='185.0' departLane='random' departSpeed='10' />
    <vehicle id='E_N_44' type='standard_car' route='E_N' depart='185.0' departLane='random' departSpeed='10' />
    <vehicle id='S_E_45' type='standard_car' route='S_E' depart='186.0' departLane='random' departSpeed='10' />
    <vehicle id='W_E_46' type='standard_car' route='W_E' depart='186.0' departLane='random' departSpeed='10' />
    <vehicle id='N_S_47' type='standard_car' route='N_S' depart='190.0' departLane='random' departSpeed='10' />
    <vehicle id='E_W_48' type='standard_car' route='E_W' depart='193.0' departLane='random' departSpeed='10' />
    <vehicle id='E_W_49' type='standard_car' route='E_W' depart='193.0' departLane='random' departSpeed='10' />
    <vehicle id='N_W_50' type='standard_car' route='N_W' depart='195.0' departLane='random' departSpeed='10' />
    <vehicle id='E_N_51' type='standard_car' route='E_N' depart='197.0' departLane='random' departSpeed='10' />
    <vehicle id='W_S_52' type='standard_car' route='W_S' depart='197.0' departLane='random' departSpeed='10' />
    <vehicle id='N_S_53' type='standard_car' route='N_S' depart='197.0' departLane='random' departSpeed='10' />
    <vehicle id='N_S_54' type='standard_car' route='N_S' depart='198.0' departLane='random' departSpeed='10' />
    <vehicle id='N_S_55' type='standard_car' route='N_S' depart='198.0' departLane='random' departSpeed='10' />
    <vehicle id='S_N_56' type='standard_car' route='S_N' depart='199.0' departLane='random' departSpeed='10' />
    <vehicle id='E_W_57' type='standard_car' route='E_W' depart='200.0' departLane='random' departSpeed='10' />
    <vehicle id='W_S_58' type='standard_car' route='W_S' depart='204.0' departLane='random' departSpeed='10' />
    <vehicle id='S_N_59' type='standard_car' route='S_N' depart='207.0' departLane='random' departSpeed='10' />
    <vehicle id='S_N_60' type='standard_car' route='S_N' depart='208.0' departLane='random' departSpeed='10' />
    <vehicle id='S_N_61' type='standard_car' route='S_N' depart='213.0' departLane='random' departSpeed='10' />
    <vehicle id='E_W_62' type='standard_car' route='E_W' depart='215.0' departLane='random' departSpeed='10' />
    <vehicle id='E_W_63' type='standard_car' route='E_W' depart='215.0' departLane='random' departSpeed='10' />
    <vehicle id='S_E_64' type='standard_car' route='S_E' depart='217.0' departLane='random' departSpeed='10' />
    <vehicle id='S_E_65' type='standard_car' route='S_E' depart='218.0' departLane='random' departSpeed='10' />
    <vehicle id='S_N_66' type='standard_car' route='S_N' depart='221.0' departLane='random' departSpeed='10' />
    <vehicle id='W_E_67' type='standard_car' route='W_E' depart='221.0' departLane='random' departSpeed='10' />
    <vehicle id='W_S_68' type='standard_car' route='W_S' depart='225.0' departLane='random' departSpeed='10' />
    <vehicle id='W_E_69' type='standard_car' route='W_E' depart='225.0' departLane='random' departSpeed='10' />
    <vehicle id='E_W_70' type='standard_car' route='E_W' depart='227.0' departLane='random' departSpeed='10' />
    <vehicle id='E_N_71' type='standard_car' route='E_N' depart='229.0' departLane='random' departSpeed='10' />
    <vehicle id='N_S_72' type='standard_car' route='N_S' depart='229.0' departLane='random' departSpeed='10' />
    <vehicle id='W_E_73' type='standard_car' route='W_E' depart='232.0' departLane='random' departSpeed='10' />
    <vehicle id='E_N_74' type='standard_car' route='E_N' depart='234.0' departLane='random' departSpeed='10' />
    <vehicle id='W_S_75' type='standard_car' route='W_S' depart='235.0' departLane='random' departSpeed='10' />
    <vehicle id='S_N_76' type='standard_car' route='S_N' depart='238.0' departLane='random' departSpeed='10' />
    <vehicle id='E_W_77' type='standard_car' route='E_W' depart='238.0' departLane='random' departSpeed='10' />
    <vehicle id='N_S_78' type='standard_car' route='N_S' depart='238.0' departLane='random' departSpeed='10' />
    <vehicle id='S_N_79' type='standard_car' route='S_N' depart='240.0' departLane='random' departSpeed='10' />
    <vehicle id='W_E_80' type='standard_car' route='W_E' depart='240.0' departLane='random' departSpeed='10' />
    <vehicle id='W_E_81' type='standard_car' route='W_E' depart='243.0' departLane='random' departSpeed='10' />
    <vehicle id='N_W_82' type='standard_car' route='N_W' depart='243.0' departLane='random' departSpeed='10' />
    <vehicle id='N_S_83' type='standard_car' route='N_S' depart='244.0' departLane='random' departSpeed='10' />
    <vehicle id='S_N_84' type='standard_car' route='S_N' depart='245.0' departLane='random' departSpeed='10' />
    <vehicle id='S_E_85' type='standard_car' route='S_E' depart='247.0' departLane='random' departSpeed='10' />
    <vehicle id='S_N_86' type='standard_car' route='S_N' depart='249.0' departLane='random' departSpeed='10' />
    <vehicle id='W_E_87' type='standard_car' route='W_E' depart='252.0' departLane='random' departSpeed='10' />
    <vehicle id='N_S_88' type='standard_car' route='N_S' depart='262.0' departLane='random' departSpeed='10' />
    <vehicle id='W_E_89' type='standard_car' route='W_E' depart='263.0' departLane='random' departSpeed='10' />
    <vehicle id='E_W_90' type='standard_car' route='E_W' depart='264.0' departLane='random' departSpeed='10' />
    <vehicle id='W_E_91' type='standard_car' route='W_E' depart='264.0' departLane='random' departSpeed='10' />
    <vehicle id='S_N_92' type='standard_car' route='S_N' depart='265.0' departLane='random' departSpeed='10' />
    <vehicle id='S_E_93' type='standard_car' route='S_E' depart='266.0' departLane='random' departSpeed='10' />
    <vehicle id='S_N_94' type='standard_car' route='S_N' depart='266.0' departLane='random' departSpeed='10' />
    <vehicle id='N_S_95' type='standard_car' route='N_S' depart='267.0' departLane='random' departSpeed='10' />
    <vehicle id='S_N_96' type='standard_car' route='S_N' depart='270.0' departLane='random' departSpeed='10' />
    <vehicle id='W_E_97' type='standard_car' route='W_E' depart='279.0' departLane='random' departSpeed='10' />
    <vehicle id='S_N_98' type='standard_car' route='S_N' depart='279.0' departLane='random' departSpeed='10' />
    <vehicle id='N_S_99' type='standard_car' route='N_S' depart='280.0' departLane='random' departSpeed='10' />
    <vehicle id='W_E_100' type='standard_car' route='W_E' depart='281.0' departLane='random' departSpeed='10' />
    <vehicle id='W_E_101' type='standard_car' route='W_E' depart='281.0' departLane='random' departSpeed='10' />
    <vehicle id='N_W_102' type='standard_car' route='N_W' depart='282.0' departLane='random' departSpeed='10' />
    <vehicle id='N_W_103' type='standard_car' route='N_W' depart='285.0' departLane='random' departSpeed='10' />
    <vehicle id='E_N_104' type='standard_car' route='E_N' depart='285.0' departLane='random' departSpeed='10' />
    <vehicle id='S_N_105' type='standard_car' route='S_N' depart='286.0' departLane='random' departSpeed='10' />
    <vehicle id='W_E_106' type='standard_car' route='W_E' depart='286.0' departLane='random' departSpeed='10' />
    <vehicle id='W_E_107' type='standard_car' route='W_E' depart='287.0' departLane='random' departSpeed='10' />
    <vehicle id='W_E_108' type='standard_car' route='W_E' depart='290.0' departLane='random' departSpeed='10' />
    <vehicle id='E_W_109' type='standard_car' route='E_W' depart='294.0' departLane='random' departSpeed='10' />
    <vehicle id='W_S_110' type='standard_car' route='W_S' depart='294.0' departLane='random' departSpeed='10' />
    <vehicle id='E_N_111' type='standard_car' route='E_N' depart='294.0' departLane='random' departSpeed='10' />
    <vehicle id='S_E_112' type='standard_car' route='S_E' depart='295.0' departLane='random' departSpeed='10' />
    <vehicle id='N_W_113' type='standard_car' route='N_W' depart='296.0' departLane='random' departSpeed='10' />
    <vehicle id='W_S_114' type='standard_car' route='W_S' depart='298.0' departLane='random' departSpeed='10' />
    <vehicle id='S_N_115' type='standard_car' route='S_N' depart='303.0' departLane='random' departSpeed='10' />
    <vehicle id='S_N_116' type='standard_car' route='S_N' depart='308.0' departLane='random' departSpeed='10' />
    <vehicle id='W_S_117' type='standard_car' route='W_S' depart='309.0' departLane='random' departSpeed='10' />
    <vehicle id='S_E_118' type='standard_car' route='S_E' depart='311.0' departLane='random' departSpeed='10' />
    <vehicle id='W_E_119' type='standard_car' route='W_E' depart='311.0' departLane='random' departSpeed='10' />
    <vehicle id='W_S_120' type='standard_car' route='W_S' depart='312.0' departLane='random' departSpeed='10' />
    <vehicle id='E_N_121' type='standard_car' route='E_N' depart='313.0' departLane='random' departSpeed='10' />
    <vehicle id='S_N_122' type='standard_car' route='S_N' depart='313.0' departLane='random' departSpeed='10' />
    <vehicle id='W_S_123' type='standard_car' route='W_S' depart='314.0' departLane='random' departSpeed='10' />
    <vehicle id='N_W_124' type='standard_car' route='N_W' depart='316.0' departLane='random' departSpeed='10' />
    <vehicle id='S_E_125' type='standard_car' route='S_E' depart='320.0' departLane='random' departSpeed='10' />
    <vehicle id='W_S_126' type='standard_car' route='W_S' depart='328.0' departLane='random' departSpeed='10' />
    <vehicle id='E_W_127' type='standard_car' route='E_W' depart='329.0' departLane='random' departSpeed='10' />
    <vehicle id='E_W_128' type='standard_car' route='E_W' depart='329.0' departLane='random' departSpeed='10' />
    <vehicle id='E_W_129' type='standard_car' route='E_W' depart='329.0' departLane='random' departSpeed='10' />
    <vehicle id='N_S_130' type='standard_car' route='N_S' depart='334.0' departLane='random' departSpeed='10' />
    <vehicle id='W_E_131' type='standard_car' route='W_E' depart='336.0' departLane='random' departSpeed='10' />
    <vehicle id='W_S_132' type='standard_car' route='W_S' depart='337.0' departLane='random' departSpeed='10' />
    <vehicle id='N_W_133' type='standard_car' route='N_W' depart='337.0' departLane='random' departSpeed='10' />
    <vehicle id='W_S_134' type='standard_car' route='W_S' depart='337.0' departLane='random' departSpeed='10' />
    <vehicle id='N_W_135' type='standard_car' route='N_W' depart='340.0' departLane='random' departSpeed='10' />
    <vehicle id='S_E_136' type='standard_car' route='S_E' depart='342.0' departLane='random' departSpeed='10' />
    <vehicle id='W_E_137' type='standard_car' route='W_E' depart='343.0' departLane='random' departSpeed='10' />
    <vehicle id='W_S_138' type='standard_car' route='W_S' depart='343.0' departLane='random' departSpeed='10' />
    <vehicle id='S_N_139' type='standard_car' route='S_N' depart='345.0' departLane='random' departSpeed='10' />
    <vehicle id='W_S_140' type='standard_car' route='W_S' depart='346.0' departLane='random' departSpeed='10' />
    <vehicle id='N_S_141' type='standard_car' route='N_S' depart='346.0' departLane='random' departSpeed='10' />
    <vehicle id='N_W_142' type='standard_car' route='N_W' depart='347.0' departLane='random' departSpeed='10' />
    <vehicle id='W_S_143' type='standard_car' route='W_S' depart='348.0' departLane='random' departSpeed='10' />
    <vehicle id='W_E_144' type='standard_car' route='W_E' depart='349.0' departLane='random' departSpeed='10' />
    <vehicle id='E_W_145' type='standard_car' route='E_W' depart='349.0' departLane='random' departSpeed='10' />
    <vehicle id='W_E_146' type='standard_car' route='W_E' depart='352.0' departLane='random' departSpeed='10' />
    <vehicle id='N_W_147' type='standard_car' route='N_W' depart='353.0' departLane='random' departSpeed='10' />
    <vehicle id='W_S_148' type='standard_car' route='W_S' depart='354.0' departLane='random' departSpeed='10' />
    <vehicle id='S_N_149' type='standard_car' route='S_N' depart='355.0' departLane='random' departSpeed='10' />
    <vehicle id='W_S_150' type='standard_car' route='W_S' depart='358.0' departLane='random' departSpeed='10' />
    <vehicle id='W_S_151' type='standard_car' route='W_S' depart='358.0' departLane='random' departSpeed='10' />
    <vehicle id='E_N_152' type='standard_car' route='E_N' depart='359.0' departLane='random' departSpeed='10' />
    <vehicle id='S_N_153' type='standard_car' route='S_N' depart='360.0' departLane='random' departSpeed='10' />
    <vehicle id='N_S_154' type='standard_car' route='N_S' depart='361.0' departLane='random' departSpeed='10' />
    <vehicle id='S_E_155' type='standard_car' route='S_E' depart='365.0' departLane='random' departSpeed='10' />
    <vehicle id='W_S_156' type='standard_car' route='W_S' depart='367.0' departLane='random' departSpeed='10' />
    <vehicle id='E_N_157' type='standard_car' route='E_N' depart='367.0' departLane='random' departSpeed='10' />
    <vehicle id='E_N_158' type='standard_car' route='E_N' depart='371.0' departLane='random' departSpeed='10' />
    <vehicle id='N_S_159' type='standard_car' route='N_S' depart='371.0' departLane='random' departSpeed='10' />
    <vehicle id='E_W_160' type='standard_car' route='E_W' depart='373.0' departLane='random' departSpeed='10' />
    <vehicle id='N_S_161' type='standard_car' route='N_S' depart='373.0' departLane='random' departSpeed='10' />
    <vehicle id='S_N_162' type='standard_car' route='S_N' depart='373.0' departLane='random' departSpeed='10' />
    <vehicle id='N_W_163' type='standard_car' route='N_W' depart='381.0' departLane='random' departSpeed='10' />
    <vehicle id='W_E_164' type='standard_car' route='W_E' depart='381.0' departLane='random' departSpeed='10' />
    <vehicle id='N_W_165' type='standard_car' route='N_W' depart='382.0' departLane='random' departSpeed='10' />
    <vehicle id='W_S_166' type='standard_car' route='W_S' depart='383.0' departLane='random' departSpeed='10' />
    <vehicle id='S_N_167' type='standard_car' route='S_N' depart='384.0' departLane='random' departSpeed='10' />
    <vehicle id='N_S_168' type='standard_car' route='N_S' depart='385.0' departLane='random' departSpeed='10' />
    <vehicle id='W_S_169' type='standard_car' route='W_S' depart='386.0' departLane='random' departSpeed='10' />
    <vehicle id='S_N_170' type='standard_car' route='S_N' depart='387.0' departLane='random' departSpeed='10' />
    <vehicle id='S_E_171' type='standard_car' route='S_E' depart='389.0' departLane='random' departSpeed='10' />
    <vehicle id='E_W_172' type='standard_car' route='E_W' depart='390.0' departLane='random' departSpeed='10' />
    <vehicle id='W_E_173' type='standard_car' route='W_E' depart='390.0' departLane='random' departSpeed='10' />
    <vehicle id='W_S_174' type='standard_car' route='W_S' depart='390.0' departLane='random' departSpeed='10' />
    <vehicle id='S_N_175' type='standard_car' route='S_N' depart='392.0' departLane='random' departSpeed='10' />
    <vehicle id='N_S_176' type='standard_car' route='N_S' depart='392.0' departLane='random' departSpeed='10' />
    <vehicle id='N_S_177' type='standard_car' route='N_S' depart='393.0' departLane='random' departSpeed='10' />
    <vehicle id='N_W_178' type='standard_car' route='N_W' depart='393.0' departLane='random' departSpeed='10' />
    <vehicle id='W_E_179' type='standard_car' route='W_E' depart='393.0' departLane='random' departSpeed='10' />
    <vehicle id='N_S_180' type='standard_car' route='N_S' depart='394.0' departLane='random' departSpeed='10' />
    <vehicle id='N_S_181' type='standard_car' route='N_S' depart='394.0' departLane='random' departSpeed='10' />
    <vehicle id='N_W_182' type='standard_car' route='N_W' depart='396.0' departLane='random' departSpeed='10' />
    <vehicle id='N_W_183' type='standard_car' route='N_W' depart='397.0' departLane='random' departSpeed='10' />
    <vehicle id='W_S_184' type='standard_car' route='W_S' depart='398.0' departLane='random' departSpeed='10' />
    <vehicle id='E_N_185' type='standard_car' route='E_N' depart='399.0' departLane='random' departSpeed='10' />
    <vehicle id='E_W_186' type='standard_car' route='E_W' depart='399.0' departLane='random' departSpeed='10' />
    <vehicle id='N_S_187' type='standard_car' route='N_S' depart='399.0' departLane='random' departSpeed='10' />
    <vehicle id='E_N_188' type='standard_car' route='E_N' depart='402.0' departLane='random' departSpeed='10' />
    <vehicle id='S_E_189' type='standard_car' route='S_E' depart='403.0' departLane='random' departSpeed='10' />
    <vehicle id='S_N_190' type='standard_car' route='S_N' depart='403.0' departLane='random' departSpeed='10' />
    <vehicle id='E_W_191' type='standard_car' route='E_W' depart='404.0' departLane='random' departSpeed='10' />
    <vehicle id='W_E_192' type='standard_car' route='W_E' depart='406.0' departLane='random' departSpeed='10' />
    <vehicle id='W_E_193' type='standard_car' route='W_E' depart='407.0' departLane='random' departSpeed='10' />
    <vehicle id='N_S_194' type='standard_car' route='N_S' depart='407.0' departLane='random' departSpeed='10' />
    <vehicle id='N_S_195' type='standard_car' route='N_S' depart='409.0' departLane='random' departSpeed='10' />
    <vehicle id='N_S_196' type='standard_car' route='N_S' depart='415.0' departLane='random' departSpeed='10' />
    <vehicle id='S_E_197' type='standard_car' route='S_E' depart='418.0' departLane='random' departSpeed='10' />
    <vehicle id='S_N_198' type='standard_car' route='S_N' depart='418.0' departLane='random' departSpeed='10' />
    <vehicle id='S_E_199' type='standard_car' route='S_E' depart='418.0' departLane='random' departSpeed='10' />
    <vehicle id='S_E_200' type='standard_car' route='S_E' depart='419.0' departLane='random' departSpeed='10' />
    <vehicle id='S_N_201' type='standard_car' route='S_N' depart='422.0' departLane='random' departSpeed='10' />
    <vehicle id='N_S_202' type='standard_car' route='N_S' depart='423.0' departLane='random' departSpeed='10' />
    <vehicle id='N_W_203' type='standard_car' route='N_W' depart='424.0' departLane='random' departSpeed='10' />
    <vehicle id='N_W_204' type='standard_car' route='N_W' depart='424.0' departLane='random' departSpeed='10' />
    <vehicle id='W_E_205' type='standard_car' route='W_E' depart='424.0' departLane='random' departSpeed='10' />
    <vehicle id='N_S_206' type='standard_car' route='N_S' depart='425.0' departLane='random' departSpeed='10' />
    <vehicle id='S_E_207' type='standard_car' route='S_E' depart='427.0' departLane='random' departSpeed='10' />
    <vehicle id='N_S_208' type='standard_car' route='N_S' depart='428.0' departLane='random' departSpeed='10' />
    <vehicle id='S_E_209' type='standard_car' route='S_E' depart='429.0' departLane='random' departSpeed='10' />
    <vehicle id='S_N_210' type='standard_car' route='S_N' depart='431.0' departLane='random' departSpeed='10' />
    <vehicle id='W_S_211' type='standard_car' route='W_S' depart='433.0' departLane='random' departSpeed='10' />
    <vehicle id='N_S_212' type='standard_car' route='N_S' depart='434.0' departLane='random' departSpeed='10' />
    <vehicle id='S_N_213' type='standard_car' route='S_N' depart='434.0' departLane='random' departSpeed='10' />
    <vehicle id='N_S_214' type='standard_car' route='N_S' depart='434.0' departLane='random' departSpeed='10' />
    <vehicle id='N_W_215' type='standard_car' route='N_W' depart='437.0' departLane='random' departSpeed='10' />
    <vehicle id='N_W_216' type='standard_car' route='N_W' depart='438.0' departLane='random' departSpeed='10' />
    <vehicle id='N_S_217' type='standard_car' route='N_S' depart='439.0' departLane='random' departSpeed='10' />
    <vehicle id='E_W_218' type='standard_car' route='E_W' depart='441.0' departLane='random' departSpeed='10' />
    <vehicle id='N_W_219' type='standard_car' route='N_W' depart='443.0' departLane='random' departSpeed='10' />
    <vehicle id='E_W_220' type='standard_car' route='E_W' depart='444.0' departLane='random' departSpeed='10' />
    <vehicle id='N_S_221' type='standard_car' route='N_S' depart='445.0' departLane='random' departSpeed='10' />
    <vehicle id='S_E_222' type='standard_car' route='S_E' depart='446.0' departLane='random' departSpeed='10' />
    <vehicle id='W_S_223' type='standard_car' route='W_S' depart='448.0' departLane='random' departSpeed='10' />
    <vehicle id='N_S_224' type='standard_car' route='N_S' depart='448.0' departLane='random' departSpeed='10' />
    <vehicle id='E_W_225' type='standard_car' route='E_W' depart='448.0' departLane='random' departSpeed='10' />
    <vehicle id='S_E_226' type='standard_car' route='S_E' depart='449.0' departLane='random' departSpeed='10' />
    <vehicle id='S_E_227' type='standard_car' route='S_E' depart='449.0' departLane='random' departSpeed='10' />
    <vehicle id='S_N_228' type='standard_car' route='S_N' depart='449.0' departLane='random' departSpeed='10' />
    <vehicle id='E_W_229' type='standard_car' route='E_W' depart='450.0' departLane='random' departSpeed='10' />
    <vehicle id='W_E_230' type='standard_car' route='W_E' depart='450.0' departLane='random' departSpeed='10' />
    <vehicle id='W_S_231' type='standard_car' route='W_S' depart='450.0' departLane='random' departSpeed='10' />
    <vehicle id='W_E_232' type='standard_car' route='W_E' depart='452.0' departLane='random' departSpeed='10' />
    <vehicle id='E_W_233' type='standard_car' route='E_W' depart='453.0' departLane='random' departSpeed='10' />
    <vehicle id='N_W_234' type='standard_car' route='N_W' depart='453.0' departLane='random' departSpeed='10' />
    <vehicle id='S_N_235' type='standard_car' route='S_N' depart='454.0' departLane='random' departSpeed='10' />
    <vehicle id='W_E_236' type='standard_car' route='W_E' depart='455.0' departLane='random' departSpeed='10' />
    <vehicle id='W_S_237' type='standard_car' route='W_S' depart='455.0' departLane='random' departSpeed='10' />
    <vehicle id='W_E_238' type='standard_car' route='W_E' depart='455.0' departLane='random' departSpeed='10' />
    <vehicle id='N_S_239' type='standard_car' route='N_S' depart='457.0' departLane='random' departSpeed='10' />
    <vehicle id='N_W_240' type='standard_car' route='N_W' depart='458.0' departLane='random' departSpeed='10' />
    <vehicle id='E_W_241' type='standard_car' route='E_W' depart='459.0' departLane='random' departSpeed='10' />
    <vehicle id='N_W_242' type='standard_car' route='N_W' depart='459.0' departLane='random' departSpeed='10' />
    <vehicle id='E_W_243' type='standard_car' route='E_W' depart='459.0' departLane='random' departSpeed='10' />
    <vehicle id='S_N_244' type='standard_car' route='S_N' depart='459.0' departLane='random' departSpeed='10' />
    <vehicle id='S_N_245' type='standard_car' route='S_N' depart='460.0' departLane='random' departSpeed='10' />
    <vehicle id='N_W_246' type='standard_car' route='N_W' depart='460.0' departLane='random' departSpeed='10' />
    <vehicle id='S_E_247' type='standard_car' route='S_E' depart='460.0' departLane='random' departSpeed='10' />
    <vehicle id='E_W_248' type='standard_car' route='E_W' depart='461.0' departLane='random' departSpeed='10' />
    <vehicle id='W_E_249' type='standard_car' route='W_E' depart='462.0' departLane='random' departSpeed='10' />
    <vehicle id='W_S_250' type='standard_car' route='W_S' depart='463.0' departLane='random' departSpeed='10' />
    <vehicle id='S_N_251' type='standard_car' route='S_N' depart='465.0' departLane='random' departSpeed='10' />
    <vehicle id='W_E_252' type='standard_car' route='W_E' depart='466.0' departLane='random' departSpeed='10' />
    <vehicle id='W_S_253' type='standard_car' route='W_S' depart='469.0' departLane='random' departSpeed='10' />
    <vehicle id='S_E_254' type='standard_car' route='S_E' depart='470.0' departLane='random' departSpeed='10' />
    <vehicle id='E_N_255' type='standard_car' route='E_N' depart='471.0' departLane='random' departSpeed='10' />
    <vehicle id='E_W_256' type='standard_car' route='E_W' depart='471.0' departLane='random' departSpeed='10' />
    <vehicle id='W_E_257' type='standard_car' route='W_E' depart='471.0' departLane='random' departSpeed='10' />
    <vehicle id='S_N_258' type='standard_car' route='S_N' depart='471.0' departLane='random' departSpeed='10' />