<routes>
    <vType id="standard_car" length="5.0" maxSpeed="15" minGap="2.5" accel="2.0" decel="4.5" />
    <route id="N_S" edges="road_1_2_3 road_1_1_3"/>
    <route id="N_E" edges="road_1_2_3 road_1_1_0"/>
    <route id="N_W" edges="road_1_2_3 road_1_1_2"/>
    <route id="S_W" edges="road_1_0_1 road_1_1_2"/>
    <route id="S_E" edges="road_1_0_1 road_1_1_0"/>
    <route id="S_N" edges="road_1_0_1 road_1_1_1"/>

    <route id="W_E" edges="road_0_1_0 road_1_1_0"/>
    <route id="W_N" edges="road_0_1_0 road_1_1_1"/>
    <route id="W_S" edges="road_0_1_0 road_1_1_3"/>
    <route id="E_N" edges="road_2_1_2 road_1_1_1"/>
    <route id="E_S" edges="road_2_1_2 road_1_1_3"/>
    <route id="E_W" edges="road_2_1_2 road_1_1_2"/>
            
    <vehicle id='N_S_0' type='standard_car' route='N_S' depart='36.0' departLane='random' departSpeed='10' />
    <vehicle id='W_E_1' type='standard_car' route='W_E' depart='46.0' departLane='random' departSpeed='10' />
    <vehicle id='S_N_2' type='standard_car' route='S_N' depart='49.0' departLane='random' departSpeed='10' />
    <vehicle id='N_W_3' type='standard_car' route='N_W' depart='55.0' departLane='random' departSpeed='10' />
    <vehicle id='W_S_4' type='standard_car' route='W_S' depart='55.0' departLane='random' departSpeed='10' />
    <vehicle id='W_E_5' type='standard_car' route='W_E' depart='64.0' departLane='random' departSpeed='10' />
    <vehicle id='N_W_6' type='standard_car' route='N_W' depart='70.0' departLane='random' departSpeed='10' />
    <vehicle id='N_S_7' type='standard_car' route='N_S' depart='76.0' departLane='random' departSpeed='10' />
    <vehicle id='S_E_8' type='standard_car' route='S_E' depart='81.0' departLane='random' departSpeed='10' />
    <vehicle id='N_S_9' type='standard_car' route='N_S' depart='82.0' departLane='random' departSpeed='10' />
    <vehicle id='N_S_10' type='standard_car' route='N_S' depart='87.0' departLane='random' departSpeed='10' />
    <vehicle id='S_E_11' type='standard_car' route='S_E' depart='89.0' departLane='random' departSpeed='10' />
    <vehicle id='W_E_12' type='standard_car' route='W_E' depart='89.0' departLane='random' departSpeed='10' />
    <vehicle id='N_W_13' type='standard_car' route='N_W' depart='97.0' departLane='random' departSpeed='10' />
    <vehicle id='S_N_14' type='standard_car' route='S_N' depart='98.0' departLane='random' departSpeed='10' />
    <vehicle id='N_S_15' type='standard_car' route='N_S' depart='101.0' departLane='random' departSpeed='10' />
    <vehicle id='E_W_16' type='standard_car' route='E_W' depart='101.0' departLane='random' departSpeed='10' />
    <vehicle id='S_N_17' type='standard_car' route='S_N' depart='102.0' departLane='random' departSpeed='10' />
    <vehicle id='S_E_18' type='standard_car' route='S_E' depart='108.0' departLane='random' departSpeed='10' />
    <vehicle id='E_W_19' type='standard_car' route='E_W' depart='109.0' departLane='random' departSpeed='10' />
    <vehicle id='N_W_20' type='standard_car' route='N_W' depart='116.0' departLane='random' departSpeed='10' />
    <vehicle id='S_E_21' type='standard_car' route='S_E' depart='118.0' departLane='random' departSpeed='10' />
    <vehicle id='E_W_22' type='standard_car' route='E_W' depart='120.0' departLane='random' departSpeed='10' />
    <vehicle id='S_E_23' type='standard_car' route='S_E' depart='131.0' departLane='random' departSpeed='10' />
    <vehicle id='S_E_24' type='standard_car' route='S_E' depart='135.0' departLane='random' departSpeed='10' />
    <vehicle id='N_W_25' type='standard_car' route='N_W' depart='141.0' departLane='random' departSpeed='10' />
    <vehicle id='E_W_26' type='standard_car' route='E_W' depart='146.0' departLane='random' departSpeed='10' />
    <vehicle id='S_N_27' type='standard_car' route='S_N' depart='147.0' departLane='random' departSpeed='10' />
    <vehicle id='E_W_28' type='standard_car' route='E_W' depart='147.0' departLane='random' departSpeed='10' />
    <vehicle id='S_E_29' type='standard_car' route='S_E' depart='149.0' departLane='random' departSpeed='10' />
    <vehicle id='W_E_30' type='standard_car' route='W_E' depart='149.0' departLane='random' departSpeed='10' />
    <vehicle id='W_E_31' type='standard_car' route='W_E' depart='149.0' departLane='random' departSpeed='10' />
    <vehicle id='S_E_32' type='standard_car' route='S_E' depart='149.0' departLane='random' departSpeed='10' />
    <vehicle id='N_S_33' type='standard_car' route='N_S' depart='152.0' departLane='random' departSpeed='10' />
    <vehicle id='N_S_34' type='standard_car' route='N_S' depart='152.0' departLane='random' departSpeed='10' />
    <vehicle id='E_N_35' type='standard_car' route='E_N' depart='153.0' departLane='random' departSpeed='10' />
    <vehicle id='N_W_36' type='standard_car' route='N_W' depart='168.0' departLane='random' departSpeed='10' />
    <vehicle id='S_N_37' type='standard_car' route='S_N' depart='172.0' departLane='random' departSpeed='10' />
    <vehicle id='E_N_38' type='standard_car' route='E_N' depart='175.0' departLane='random' departSpeed='10' />
    <vehicle id='E_W_39' type='standard_car' route='E_W' depart='176.0' departLane='random' departSpeed='10' />
    <vehicle id='S_E_40' type='standard_car' route='S_E' depart='180.0' departLane='random' departSpeed='10' />
    <vehicle id='E_W_41' type='standard_car' route='E_W' depart='180.0' departLane='random' departSpeed='10' />
    <vehicle id='W_E_42' type='standard_car' route='W_E' depart='180.0' departLane='random' departSpeed='10' />
    <vehicle id='W_E_43' type='standard_car' route='W_E' depart='182.0' departLane='random' departSpeed='10' />
    <vehicle id='N_S_44' type='standard_car' route='N_S' depart='183.0' departLane='random' departSpeed='10' />
    <vehicle id='S_N_45' type='standard_car' route='S_N' depart='185.0' departLane='random' departSpeed='10' />
    <vehicle id='S_N_46' type='standard_car' route='S_N' depart='185.0' departLane='random' departSpeed='10' />
    <vehicle id='N_W_47' type='standard_car' route='N_W' depart='187.0' departLane='random' departSpeed='10' />
    <vehicle id='W_E_48' type='standard_car' route='W_E' depart='189.0' departLane='random' departSpeed='10' />
    <vehicle id='E_N_49' type='standard_car' route='E_N' depart='190.0' departLane='random' departSpeed='10' />
    <vehicle id='N_S_50' type='standard_car' route='N_S' depart='190.0' departLane='random' departSpeed='10' />
    <vehicle id='N_W_51' type='standard_car' route='N_W' depart='196.0' departLane='random' departSpeed='10' />
    <vehicle id='W_S_52' type='standard_car' route='W_S' depart='196.0' departLane='random' departSpeed='10' />
    <vehicle id='S_N_53' type='standard_car' route='S_N' depart='198.0' departLane='random' departSpeed='10' />
    <vehicle id='N_W_54' type='standard_car' route='N_W' depart='200.0' departLane='random' departSpeed='10' />
    <vehicle id='S_N_55' type='standard_car' route='S_N' depart='201.0' departLane='random' departSpeed='10' />
    <vehicle id='S_N_56' type='standard_car' route='S_N' depart='203.0' departLane='random' departSpeed='10' />
    <vehicle id='W_S_57' type='standard_car' route='W_S' depart='204.0' departLane='random' departSpeed='10' />
    <vehicle id='N_S_58' type='standard_car' route='N_S' depart='204.0' departLane='random' departSpeed='10' />
    <vehicle id='W_S_59' type='standard_car' route='W_S' depart='212.0' departLane='random' departSpeed='10' />
    <vehicle id='N_S_60' type='standard_car' route='N_S' depart='215.0' departLane='random' departSpeed='10' />
    <vehicle id='E_W_61' type='standard_car' route='E_W' depart='216.0' departLane='random' departSpeed='10' />
    <vehicle id='E_W_62' type='standard_car' route='E_W' depart='218.0' departLane='random' departSpeed='10' />
    <vehicle id='W_E_63' type='standard_car' route='W_E' depart='219.0' departLane='random' departSpeed='10' />
    <vehicle id='W_E_64' type='standard_car' route='W_E' depart='224.0' departLane='random' departSpeed='10' />
    <vehicle id='N_S_65' type='standard_car' route='N_S' depart='225.0' departLane='random' departSpeed='10' />
    <vehicle id='S_N_66' type='standard_car' route='S_N' depart='228.0' departLane='random' departSpeed='10' />
    <vehicle id='W_E_67' type='standard_car' route='W_E' depart='228.0' departLane='random' departSpeed='10' />
    <vehicle id='W_S_68' type='standard_car' route='W_S' depart='229.0' departLane='random' departSpeed='10' />
    <vehicle id='E_W_69' type='standard_car' route='E_W' depart='230.0' departLane='random' departSpeed='10' />
    <vehicle id='S_N_70' type='standard_car' route='S_N' depart='231.0' departLane='random' departSpeed='10' />
    <vehicle id='S_E_71' type='standard_car' route='S_E' depart='232.0' departLane='random' departSpeed='10' />
    <vehicle id='W_E_72' type='standard_car' route='W_E' depart='235.0' departLane='random' departSpeed='10' />
    <vehicle id='W_S_73' type='standard_car' route='W_S' depart='236.0' departLane='random' departSpeed='10' />
    <vehicle id='S_E_74' type='standard_car' route='S_E' depart='237.0' departLane='random' departSpeed='10' />
    <vehicle id='N_S_75' type='standard_car' route='N_S' depart='240.0' departLane='random' departSpeed='10' />
    <vehicle id='E_W_76' type='standard_car' route='E_W' depart='240.0' departLane='random' departSpeed='10' />
    <vehicle id='S_E_77' type='standard_car' route='S_E' depart='240.0' departLane='random' departSpeed='10' />
    <vehicle id='S_E_78' type='standard_car' route='S_E' depart='241.0' departLane='random' departSpeed='10' />
    <vehicle id='N_S_79' type='standard_car' route='N_S' depart='243.0' departLane='random' departSpeed='10' />
    <vehicle id='W_E_80' type='standard_car' route='W_E' depart='249.0' departLane='random' departSpeed='10' />
    <vehicle id='W_E_81' type='standard_car' route='W_E' depart='250.0' departLane='random' departSpeed='10' />
    <vehicle id='S_N_82' type='standard_car' route='S_N' depart='251.0' departLane='random' departSpeed='10' />
    <vehicle id='W_E_83' type='standard_car' route='W_E' depart='254.0' departLane='random' departSpeed='10' />
    <vehicle id='E_N_84' type='standard_car' route='E_N' depart='254.0' departLane='random' departSpeed='10' />
    <vehicle id='N_W_85' type='standard_car' route='N_W' depart='256.0' departLane='random' departSpeed='10' />
    <vehicle id='S_N_86' type='standard_car' route='S_N' depart='257.0' departLane='random' departSpeed='10' />
    <vehicle id='S_E_87' type='standard_car' route='S_E' depart='257.0' departLane='random' departSpeed='10' />
    <vehicle id='W_S_88' type='standard_car' route='W_S' depart='257.0' departLane='random' departSpeed='10' />
    <vehicle id='S_E_89' type='standard_car' route='S_E' depart='257.0' departLane='random' departSpeed='10' />
    <vehicle id='N_S_90' type='standard_car' route='N_S' depart='259.0' departLane='random' departSpeed='10' />
    <vehicle id='N_W_91' type='standard_car' route='N_W' depart='264.0' departLane='random' departSpeed='10' />
    <vehicle id='S_E_92' type='standard_car' route='S_E' depart='264.0' departLane='random' departSpeed='10' />
    <vehicle id='W_E_93' type='standard_car' route='W_E' depart='267.0' departLane='random' departSpeed='10' />
    <vehicle id='E_N_94' type='standard_car' route='E_N' depart='274.0' departLane='random' departSpeed='10' />
    <vehicle id='N_W_95' type='standard_car' route='N_W' depart='277.0' departLane='random' departSpeed='10' />
    <vehicle id='S_N_96' type='standard_car' route='S_N' depart='277.0' departLane='random' departSpeed='10' />
    <vehicle id='N_W_97' type='standard_car' route='N_W' depart='278.0' departLane='random' departSpeed='10' />
    <vehicle id='W_E_98' type='standard_car' route='W_E' depart='278.0' departLane='random' departSpeed='10' />
    <vehicle id='W_E_99' type='standard_car' route='W_E' depart='284.0' departLane='random' departSpeed='10' />
    <vehicle id='N_S_100' type='standard_car' route='N_S' depart='286.0' departLane='random' departSpeed='10' />
    <vehicle id='E_N_101' type='standard_car' route='E_N' depart='288.0' departLane='random' departSpeed='10' />
    <vehicle id='S_E_102' type='standard_car' route='S_E' depart='289.0' departLane='random' departSpeed='10' />
    <vehicle id='S_N_103' type='standard_car' route='S_N' depart='289.0' departLane='random' departSpeed='10' />
    <vehicle id='E_W_104' type='standard_car' route='E_W' depart='293.0' departLane='random' departSpeed='10' />
    <vehicle id='N_S_105' type='standard_car' route='N_S' depart='295.0' departLane='random' departSpeed='10' />
    <vehicle id='N_W_106' type='standard_car' route='N_W' depart='295.0' departLane='random' departSpeed='10' />
    <vehicle id='E_N_107' type='standard_car' route='E_N' depart='298.0' departLane='random' departSpeed='10' />
    <vehicle id='E_W_108' type='standard_car' route='E_W' depart='298.0' departLane='random' departSpeed='10' />
    <vehicle id='S_E_109' type='standard_car' route='S_E' depart='303.0' departLane='random' departSpeed='10' />
    <vehicle id='S_E_110' type='standard_car' route='S_E' depart='303.0' departLane='random' departSpeed='10' />
    <vehicle id='E_W_111' type='standard_car' route='E_W' depart='304.0' departLane='random' departSpeed='10' />
    <vehicle id='N_S_112' type='standard_car' route='N_S' depart='304.0' departLane='random' departSpeed='10' />
    <vehicle id='E_W_113' type='standard_car' route='E_W' depart='305.0' departLane='random' departSpeed='10' />
    <vehicle id='W_E_114' type='standard_car' route='W_E' depart='312.0' departLane='random' departSpeed='10' />
    <vehicle id='W_S_115' type='standard_car' route='W_S' depart='313.0' departLane='random' departSpeed='10' />
    <vehicle id='S_N_116' type='standard_car' route='S_N' depart='313.0' departLane='random' departSpeed='10' />
    <vehicle id='W_E_117' type='standard_car' route='W_E' depart='313.0' departLane='random' departSpeed='10' />
    <vehicle id='N_S_118' type='standard_car' route='N_S' depart='314.0' departLane='random' departSpeed='10' />
    <vehicle id='E_W_119' type='standard_car' route='E_W' depart='314.0' departLane='random' departSpeed='10' />
    <vehicle id='W_E_120' type='standard_car' route='W_E' depart='315.0' departLane='random' departSpeed='10' />
    <vehicle id='E_W_121' type='standard_car' route='E_W' depart='317.0' departLane='random' departSpeed='10' />
    <vehicle id='N_W_122' type='standard_car' route='N_W' depart='319.0' departLane='random' departSpeed='10' />
    <vehicle id='S_N_123' type='standard_car' route='S_N' depart='320.0' departLane='random' departSpeed='10' />
    <vehicle id='E_W_124' type='standard_car' route='E_W' depart='323.0' departLane='random' departSpeed='10' />
    <vehicle id='N_W_125' type='standard_car' route='N_W' depart='324.0' departLane='random' departSpeed='10' />
    <vehicle id='N_S_126' type='standard_car' route='N_S' depart='324.0' departLane='random' departSpeed='10' />
    <vehicle id='W_E_127' type='standard_car' route='W_E' depart='330.0' departLane='random' departSpeed='10' />
    <vehicle id='S_N_128' type='standard_car' route='S_N' depart='330.0' departLane='random' departSpeed='10' />
    <vehicle id='E_W_129' type='standard_car' route='E_W' depart='332.0' departLane='random' departSpeed='10' />
    <vehicle id='N_W_130' type='standard_car' route='N_W' depart='333.0' departLane='random' departSpeed='10' />
    <vehicle id='W_E_131' type='standard_car' route='W_E' depart='333.0' departLane='random' departSpeed='10' />
    <vehicle id='S_E_132' type='standard_car' route='S_E' depart='333.0' departLane='random' departSpeed='10' />
    <vehicle id='E_W_133' type='standard_car' route='E_W' depart='335.0' departLane='random' departSpeed='10' />
    <vehicle id='W_S_134' type='standard_car' route='W_S' depart='336.0' departLane='random' departSpeed='10' />
    <vehicle id='N_S_135' type='standard_car' route='N_S' depart='336.0' departLane='random' departSpeed='10' />
    <vehicle id='E_W_136' type='standard_car' route='E_W' depart='337.0' departLane='random' departSpeed='10' />
    <vehicle id='W_E_137' type='standard_car' route='W_E' depart='342.0' departLane='random' departSpeed='10' />
    <vehicle id='S_N_138' type='standard_car' route='S_N' depart='343.0' departLane='random' departSpeed='10' />
    <vehicle id='S_N_139' type='standard_car' route='S_N' depart='343.0' departLane='random' departSpeed='10' />
    <vehicle id='E_N_140' type='standard_car' route='E_N' depart='344.0' departLane='random' departSpeed='10' />
    <vehicle id='N_W_141' type='standard_car' route='N_W' depart='347.0' departLane='random' departSpeed='10' />
    <vehicle id='W_E_142' type='standard_car' route='W_E' depart='347.0' departLane='random' departSpeed='10' />
    <vehicle id='W_S_143' type='standard_car' route='W_S' depart='347.0' departLane='random' departSpeed='10' />
    <vehicle id='S_E_144' type='standard_car' route='S_E' depart='351.0' departLane='random' departSpeed='10' />
    <vehicle id='W_E_145' type='standard_car' route='W_E' depart='351.0' departLane='random' departSpeed='10' />
    <vehicle id='E_N_146' type='standard_car' route='E_N' depart='351.0' departLane='random' departSpeed='10' />
    <vehicle id='N_S_147' type='standard_car' route='N_S' depart='352.0' departLane='random' departSpeed='10' />
    <vehicle id='S_N_148' type='standard_car' route='S_N' depart='353.0' departLane='random' departSpeed='10' />
    <vehicle id='W_E_149' type='standard_car' route='W_E' depart='355.0' departLane='random' departSpeed='10' />
    <vehicle id='S_E_150' type='standard_car' route='S_E' depart='359.0' departLane='random' departSpeed='10' />
    <vehicle id='W_S_151' type='standard_car' route='W_S' depart='360.0' departLane='random' departSpeed='10' />
    <vehicle id='E_W_152' type='standard_car' route='E_W' depart='360.0' departLane='random' departSpeed='10' />
    <vehicle id='S_N_153' type='standard_car' route='S_N' depart='364.0' departLane='random' departSpeed='10' />
    <vehicle id='E_W_154' type='standard_car' route='E_W' depart='364.0' departLane='random' departSpeed='10' />
    <vehicle id='E_N_155' type='standard_car' route='E_N' depart='365.0' departLane='random' departSpeed='10' />
    <vehicle id='N_S_156' type='standard_car' route='N_S' depart='365.0' departLane='random' departSpeed='10' />
    <vehicle id='W_E_157' type='standard_car' route='W_E' depart='366.0' departLane='random' departSpeed='10' />
    <vehicle id='S_E_158' type='standard_car' route='S_E' depart='367.0' departLane='random' departSpeed='10' />
    <vehicle id='E_W_159' type='standard_car' route='E_W' depart='367.0' departLane='random' departSpeed='10' />
    <vehicle id='W_E_160' type='standard_car' route='W_E' depart='368.0' departLane='random' departSpeed='10' />
    <vehicle id='E_N_161' type='standard_car' route='E_N' depart='369.0' departLane='random' departSpeed='10' />
    <vehicle id='N_S_162' type='standard_car' route='N_S' depart='373.0' departLane='random' departSpeed='10' />
    <vehicle id='W_E_163' type='standard_car' route='W_E' depart='374.0' departLane='random' departSpeed='10' />
    <vehicle id='E_W_164' type='standard_car' route='E_W' depart='381.0' departLane='random' departSpeed='10' />
    <vehicle id='E_W_165' type='standard_car' route='E_W' depart='382.0' departLane='random' departSpeed='10' />
    <vehicle id='N_W_166' type='standard_car' route='N_W' depart='383.0' departLane='random' departSpeed='10' />
    <vehicle id='W_S_167' type='standard_car' route='W_S' depart='383.0' departLane='random' departSpeed='10' />
    <vehicle id='E_W_168' type='standard_car' route='E_W' depart='385.0' departLane='random' departSpeed='10' />
    <vehicle id='N_S_169' type='standard_car' route='N_S' depart='387.0' departLane='random' departSpeed='10' />
    <vehicle id='N_W_170' type='standard_car' route='N_W' depart='387.0' departLane='random' departSpeed='10' />
    <vehicle id='E_W_171' type='standard_car' route='E_W' depart='389.0' departLane='random' departSpeed='10' />
    <vehicle id='N_S_172' type='standard_car' route='N_S' depart='389.0' departLane='random' departSpeed='10' />
    <vehicle id='E_N_173' type='standard_car' route='E_N' depart='389.0' departLane='random' departSpeed='10' />
    <vehicle id='W_S_174' type='standard_car' route='W_S' depart='389.0' departLane='random' departSpeed='10' />
    <vehicle id='W_E_175' type='standard_car' route='W_E' depart='389.0' departLane='random' departSpeed='10' />
    <vehicle id='W_E_176' type='standard_car' route='W_E' depart='392.0' departLane='random' departSpeed='10' />
    <vehicle id='S_E_177' type='standard_car' route='S_E' depart='392.0' departLane='random' departSpeed='10' />
    <vehicle id='N_W_178' type='standard_car' route='N_W' depart='393.0' departLane='random' departSpeed='10' />
    <vehicle id='W_S_179' type='standard_car' route='W_S' depart='393.0' departLane='random' departSpeed='10' />
    <vehicle id='E_N_180' type='standard_car' route='E_N' depart='395.0' departLane='random' departSpeed='10' />
    <vehicle id='E_N_181' type='standard_car' route='E_N' depart='395.0' departLane='random' departSpeed='10' />
    <vehicle id='N_S_182' type='standard_car' route='N_S' depart='396.0' departLane='random' departSpeed='10' />
    <vehicle id='E_W_183' type='standard_car' route='E_W' depart='397.0' departLane='random' departSpeed='10' />
    <vehicle id='S_N_184' type='standard_car' route='S_N' depart='397.0' departLane='random' departSpeed='10' />
    <vehicle id='E_W_185' type='standard_car' route='E_W' depart='397.0' departLane='random' departSpeed='10' />
    <vehicle id='W_E_186' type='standard_car' route='W_E' depart='398.0' departLane='random' departSpeed='10' />
    <vehicle id='E_W_187' type='standard_car' route='E_W' depart='398.0' departLane='random' departSpeed='10' />
    <vehicle id='E_N_188' type='standard_car' route='E_N' depart='399.0' departLane='random' departSpeed='10' />
    <vehicle id='W_S_189' type='standard_car' route='W_S' depart='399.0' departLane='random' departSpeed='10' />
    <vehicle id='S_E_190' type='standard_car' route='S_E' depart='400.0' departLane='random' departSpeed='10' />
    <vehicle id='N_S_191' type='standard_car' route='N_S' depart='401.0' departLane='random' departSpeed='10' />
    <vehicle id='E_W_192' type='standard_car' route='E_W' depart='402.0' departLane='random' departSpeed='10' />
    <vehicle id='W_E_193' type='standard_car' route='W_E' depart='402.0' departLane='random' departSpeed='10' />
    <vehicle id='E_N_194' type='standard_car' route='E_N' depart='402.0' departLane='random' departSpeed='10' />
    <vehicle id='S_N_195' type='standard_car' route='S_N' depart='403.0' departLane='random' departSpeed='10' />
    <vehicle id='E_N_196' type='standard_car' route='E_N' depart='407.0' departLane='random' departSpeed='10' />
    <vehicle id='S_E_197' type='standard_car' route='S_E' depart='408.0' departLane='random' departSpeed='10' />
    <vehicle id='N_W_198' type='standard_car' route='N_W' depart='409.0' departLane='random' departSpeed='10' />
    <vehicle id='W_E_199' type='standard_car' route='W_E' depart='409.0' departLane='random' departSpeed='10' />
    <vehicle id='E_N_200' type='standard_car' route='E_N' depart='412.0' departLane='random' departSpeed='10' />
    <vehicle id='N_S_201' type='standard_car' route='N_S' depart='414.0' departLane='random' departSpeed='10' />
    <vehicle id='W_S_202' type='standard_car' route='W_S' depart='415.0' departLane='random' departSpeed='10' />
    <vehicle id='N_W_203' type='standard_car' route='N_W' depart='417.0' departLane='random' departSpeed='10' />
    <vehicle id='S_E_204' type='standard_car' route='S_E' depart='417.0' departLane='random' departSpeed='10' />
    <vehicle id='S_N_205' type='standard_car' route='S_N' depart='417.0' departLane='random' departSpeed='10' />
    <vehicle id='W_E_206' type='standard_car' route='W_E' depart='418.0' departLane='random' departSpeed='10' />
    <vehicle id='W_S_207' type='standard_car' route='W_S' depart='418.0' departLane='random' departSpeed='10' />
    <vehicle id='S_E_208' type='standard_car' route='S_E' depart='420.0' departLane='random' departSpeed='10' />
    <vehicle id='N_S_209' type='standard_car' route='N_S' depart='421.0' departLane='random' departSpeed='10' />
    <vehicle id='N_W_210' type='standard_car' route='N_W' depart='422.0' departLane='random' departSpeed='10' />
    <vehicle id='N_S_211' type='standard_car' route='N_S' depart='423.0' departLane='random' departSpeed='10' />
    <vehicle id='S_N_212' type='standard_car' route='S_N' depart='427.0' departLane='random' departSpeed='10' />
    <vehicle id='E_W_213' type='standard_car' route='E_W' depart='427.0' departLane='random' departSpeed='10' />
    <vehicle id='E_N_214' type='standard_car' route='E_N' depart='428.0' departLane='random' departSpeed='10' />
    <vehicle id='N_S_215' type='standard_car' route='N_S' depart='428.0' departLane='random' departSpeed='10' />
    <vehicle id='E_W_216' type='standard_car' route='E_W' depart='428.0' departLane='random' departSpeed='10' />
    <vehicle id='S_N_217' type='standard_car' route='S_N' depart='431.0' departLane='random' departSpeed='10' />
    <vehicle id='S_N_218' type='standard_car' route='S_N' depart='432.0' departLane='random' departSpeed='10' />
    <vehicle id='W_E_219' type='standard_car' route='W_E' depart='433.0' departLane='random' departSpeed='10' />
    <vehicle id='W_E_220' type='standard_car' route='W_E' depart='434.0' departLane='random' departSpeed='10' />
    <vehicle id='W_S_221' type='standard_car' route='W_S' depart='435.0' departLane='random' departSpeed='10' />
    <vehicle id='E_N_222' type='standard_car' route='E_N' depart='435.0' departLane='random' departSpeed='10' />
    <vehicle id='W_E_223' type='standard_car' route='W_E' depart='436.0' departLane='random' departSpeed='10' />
    <vehicle id='N_S_224' type='standard_car' route='N_S' depart='436.0' departLane='random' departSpeed='10' />
    <vehicle id='S_E_225' type='standard_car' route='S_E' depart='436.0' departLane='random' departSpeed='10' />
    <vehicle id='S_N_226' type='standard_car' route='S_N' depart='439.0' departLane='random' departSpeed='10' />
    <vehicle id='S_E_227' type='standard_car' route='S_E' depart='439.0' departLane='random' departSpeed='10' />
    <vehicle id='N_W_228' type='standard_car' route='N_W' depart='439.0' departLane='random' departSpeed='10' />
    <vehicle id='N_W_229' type='standard_car' route='N_W' depart='440.0' departLane='random' departSpeed='10' />
    <vehicle id='W_S_230' type='standard_car' route='W_S' depart='441.0' departLane='random' departSpeed='10' />
    <vehicle id='S_E_231' type='standard_car' route='S_E' depart='441.0' departLane='random' departSpeed='10' />
    <vehicle id='E_W_232' type='standard_car' route='E_W' depart='441.0' departLane='random' departSpeed='10' />
    <vehicle id='N_W_233' type='standard_car' route='N_W' depart='442.0' departLane='random' departSpeed='10' />
    <vehicle id='N_S_234' type='standard_car' route='N_S' depart='443.0' departLane='random' departSpeed='10' />
    <vehicle id='S_N_235' type='standard_car' route='S_N' depart='443.0' departLane='random' departSpeed='10' />
    <vehicle id='W_E_236' type='standard_car' route='W_E' depart='444.0' departLane='random' departSpeed='10' />
    <vehicle id='N_S_237' type='standard_car' route='N_S' depart='444.0' departLane='random' departSpeed='10' />
    <vehicle id='E_W_238' type='standard_car' route='E_W' depart='444.0' departLane='random' departSpeed='10' />
    <vehicle id='S_N_239' type='standard_car' route='S_N' depart='444.0' departLane='random' departSpeed='10' />
    <vehicle id='N_S_240' type='standard_car' route='N_S' depart='445.0' departLane='random' departSpeed='10' />
    <vehicle id='N_S_241' type='standard_car' route='N_S' depart='445.0' departLane='random' departSpeed='10' />
    <vehicle id='W_S_242' type='standard_car' route='W_S' depart='445.0' departLane='random' departSpeed='10' />
    <vehicle id='S_E_243' type='standard_car' route='S_E' depart='446.0' departLane='random' departSpeed='10' />
    <vehicle id='E_N_244' type='standard_car' route='E_N' depart='447.0' departLane='random' departSpeed='10' />
    <vehicle id='S_E_245' type='standard_car' route='S_E' depart='447.0' departLane='random' departSpeed='10' />
    <vehicle id='S_N_246' type='standard_car' route='S_N' depart='448.0' departLane='random' departSpeed='10' />
    <vehicle id='S_N_247' type='standard_car' route='S_N' depart='448.0' departLane='random' departSpeed='10' />
    <vehicle id='N_S_248' type='standard_car' route='N_S' depart='449.0' departLane='random' departSpeed='10' />
    <vehicle id='E_N_249' type='standard_car' route='E_N' depart='449.0' departLane='random' departSpeed='10' />
    <vehicle id='E_W_250' type='standard_car' route='E_W' depart='450.0' departLane='random' departSpeed='10' />
    <vehicle id='N_S_251' type='standard_car' route='N_S' depart='450.0' departLane='random' departSpeed='10' />
    <vehicle id='E_W_252' type='standard_car' route='E_W' depart='451.0' departLane='random' departSpeed='10' />
    <vehicle id='W_E_253' type='standard_car' route='W_E' depart='452.0' departLane='random' departSpeed='10' />
    <vehicle id='E_W_254' type='standard_car' route='E_W' depart='452.0' departLane='random' departSpeed='10' />
    <vehicle id='E_W_255' type='standard_car' route='E_W' depart='453.0' departLane='random' departSpeed='10' />
    <vehicle id='S_N_256' type='standard_car' route='S_N' depart='453.0' departLane='random' departSpeed='10' />
    <vehicle id='W_E_257' type='standard_car' route='W_E' depart='454.0' departLane='random' departSpeed='10' />
    <vehicle id='W_E_258' type='standard_car' route='W_E' depart='455.0' departLane='random' departSpeed='10' />
    <vehicle id='W_S_259' type='standard_car' route='W_S' depart='456.0' departLane='random' departSpeed='10' />