<routes>
    <vType id="standard_car" length="5.0" maxSpeed="15" minGap="2.5" accel="2.0" decel="4.5" />
    <route id="N_S" edges="road_1_2_3 road_1_1_3"/>
    <route id="N_E" edges="road_1_2_3 road_1_1_0"/>
    <route id="N_W" edges="road_1_2_3 road_1_1_2"/>
    <route id="S_W" edges="road_1_0_1 road_1_1_2"/>
    <route id="S_E" edges="road_1_0_1 road_1_1_0"/>
    <route id="S_N" edges="road_1_0_1 road_1_1_1"/>

    <route id="W_E" edges="road_0_1_0 road_1_1_0"/>
    <route id="W_N" edges="road_0_1_0 road_1_1_1"/>
    <route id="W_S" edges="road_0_1_0 road_1_1_3"/>
    <route id="E_N" edges="road_2_1_2 road_1_1_1"/>
    <route id="E_S" edges="road_2_1_2 road_1_1_3"/>
    <route id="E_W" edges="road_2_1_2 road_1_1_2"/>
            
    <vehicle id='N_S_0' type='standard_car' route='N_S' depart='23.0' departLane='random' departSpeed='10' />
    <vehicle id='S_N_1' type='standard_car' route='S_N' depart='30.0' departLane='random' departSpeed='10' />
    <vehicle id='S_N_2' type='standard_car' route='S_N' depart='31.0' departLane='random' departSpeed='10' />
    <vehicle id='N_W_3' type='standard_car' route='N_W' depart='35.0' departLane='random' departSpeed='10' />
    <vehicle id='N_W_4' type='standard_car' route='N_W' depart='39.0' departLane='random' departSpeed='10' />
    <vehicle id='W_E_5' type='standard_car' route='W_E' depart='51.0' departLane='random' departSpeed='10' />
    <vehicle id='W_S_6' type='standard_car' route='W_S' depart='60.0' departLane='random' departSpeed='10' />
    <vehicle id='S_N_7' type='standard_car' route='S_N' depart='62.0' departLane='random' departSpeed='10' />
    <vehicle id='S_N_8' type='standard_car' route='S_N' depart='64.0' departLane='random' departSpeed='10' />
    <vehicle id='E_W_9' type='standard_car' route='E_W' depart='70.0' departLane='random' departSpeed='10' />
    <vehicle id='E_N_10' type='standard_car' route='E_N' depart='70.0' departLane='random' departSpeed='10' />
    <vehicle id='W_E_11' type='standard_car' route='W_E' depart='73.0' departLane='random' departSpeed='10' />
    <vehicle id='N_S_12' type='standard_car' route='N_S' depart='74.0' departLane='random' departSpeed='10' />
    <vehicle id='W_E_13' type='standard_car' route='W_E' depart='80.0' departLane='random' departSpeed='10' />
    <vehicle id='N_S_14' type='standard_car' route='N_S' depart='84.0' departLane='random' departSpeed='10' />
    <vehicle id='S_N_15' type='standard_car' route='S_N' depart='86.0' departLane='random' departSpeed='10' />
    <vehicle id='S_N_16' type='standard_car' route='S_N' depart='87.0' departLane='random' departSpeed='10' />
    <vehicle id='E_W_17' type='standard_car' route='E_W' depart='89.0' departLane='random' departSpeed='10' />
    <vehicle id='S_N_18' type='standard_car' route='S_N' depart='91.0' departLane='random' departSpeed='10' />
    <vehicle id='N_W_19' type='standard_car' route='N_W' depart='94.0' departLane='random' departSpeed='10' />
    <vehicle id='W_S_20' type='standard_car' route='W_S' depart='94.0' departLane='random' departSpeed='10' />
    <vehicle id='N_S_21' type='standard_car' route='N_S' depart='94.0' departLane='random' departSpeed='10' />
    <vehicle id='S_N_22' type='standard_car' route='S_N' depart='96.0' departLane='random' departSpeed='10' />
    <vehicle id='E_N_23' type='standard_car' route='E_N' depart='96.0' departLane='random' departSpeed='10' />
    <vehicle id='E_W_24' type='standard_car' route='E_W' depart='101.0' departLane='random' departSpeed='10' />
    <vehicle id='N_S_25' type='standard_car' route='N_S' depart='103.0' departLane='random' departSpeed='10' />
    <vehicle id='W_E_26' type='standard_car' route='W_E' depart='106.0' departLane='random' departSpeed='10' />
    <vehicle id='N_S_27' type='standard_car' route='N_S' depart='109.0' departLane='random' departSpeed='10' />
    <vehicle id='S_E_28' type='standard_car' route='S_E' depart='113.0' departLane='random' departSpeed='10' />
    <vehicle id='N_S_29' type='standard_car' route='N_S' depart='115.0' departLane='random' departSpeed='10' />
    <vehicle id='N_S_30' type='standard_car' route='N_S' depart='117.0' departLane='random' departSpeed='10' />
    <vehicle id='E_N_31' type='standard_car' route='E_N' depart='119.0' departLane='random' departSpeed='10' />
    <vehicle id='S_N_32' type='standard_car' route='S_N' depart='120.0' departLane='random' departSpeed='10' />
    <vehicle id='S_E_33' type='standard_car' route='S_E' depart='120.0' departLane='random' departSpeed='10' />
    <vehicle id='N_W_34' type='standard_car' route='N_W' depart='120.0' departLane='random' departSpeed='10' />
    <vehicle id='W_E_35' type='standard_car' route='W_E' depart='128.0' departLane='random' departSpeed='10' />
    <vehicle id='S_N_36' type='standard_car' route='S_N' depart='130.0' departLane='random' departSpeed='10' />
    <vehicle id='S_N_37' type='standard_car' route='S_N' depart='130.0' departLane='random' departSpeed='10' />
    <vehicle id='W_S_38' type='standard_car' route='W_S' depart='133.0' departLane='random' departSpeed='10' />
    <vehicle id='E_W_39' type='standard_car' route='E_W' depart='133.0' departLane='random' departSpeed='10' />
    <vehicle id='S_N_40' type='standard_car' route='S_N' depart='136.0' departLane='random' departSpeed='10' />
    <vehicle id='E_W_41' type='standard_car' route='E_W' depart='137.0' departLane='random' departSpeed='10' />
    <vehicle id='N_S_42' type='standard_car' route='N_S' depart='139.0' departLane='random' departSpeed='10' />
    <vehicle id='E_W_43' type='standard_car' route='E_W' depart='139.0' departLane='random' departSpeed='10' />
    <vehicle id='W_E_44' type='standard_car' route='W_E' depart='143.0' departLane='random' departSpeed='10' />
    <vehicle id='E_W_45' type='standard_car' route='E_W' depart='144.0' departLane='random' departSpeed='10' />
    <vehicle id='E_W_46' type='standard_car' route='E_W' depart='144.0' departLane='random' departSpeed='10' />
    <vehicle id='N_S_47' type='standard_car' route='N_S' depart='146.0' departLane='random' departSpeed='10' />
    <vehicle id='S_N_48' type='standard_car' route='S_N' depart='147.0' departLane='random' departSpeed='10' />
    <vehicle id='N_S_49' type='standard_car' route='N_S' depart='149.0' departLane='random' departSpeed='10' />
    <vehicle id='N_S_50' type='standard_car' route='N_S' depart='150.0' departLane='random' departSpeed='10' />
    <vehicle id='N_S_51' type='standard_car' route='N_S' depart='152.0' departLane='random' departSpeed='10' />
    <vehicle id='W_E_52' type='standard_car' route='W_E' depart='154.0' departLane='random' departSpeed='10' />
    <vehicle id='W_E_53' type='standard_car' route='W_E' depart='157.0' departLane='random' departSpeed='10' />
    <vehicle id='N_W_54' type='standard_car' route='N_W' depart='158.0' departLane='random' departSpeed='10' />
    <vehicle id='W_E_55' type='standard_car' route='W_E' depart='158.0' departLane='random' departSpeed='10' />
    <vehicle id='N_S_56' type='standard_car' route='N_S' depart='159.0' departLane='random' departSpeed='10' />
    <vehicle id='S_N_57' type='standard_car' route='S_N' depart='162.0' departLane='random' departSpeed='10' />
    <vehicle id='S_E_58' type='standard_car' route='S_E' depart='164.0' departLane='random' departSpeed='10' />
    <vehicle id='S_N_59' type='standard_car' route='S_N' depart='166.0' departLane='random' departSpeed='10' />
    <vehicle id='N_S_60' type='standard_car' route='N_S' depart='168.0' departLane='random' departSpeed='10' />
    <vehicle id='E_N_61' type='standard_car' route='E_N' depart='168.0' departLane='random' departSpeed='10' />
    <vehicle id='E_N_62' type='standard_car' route='E_N' depart='169.0' departLane='random' departSpeed='10' />
    <vehicle id='W_S_63' type='standard_car' route='W_S' depart='170.0' departLane='random' departSpeed='10' />
    <vehicle id='S_N_64' type='standard_car' route='S_N' depart='170.0' departLane='random' departSpeed='10' />
    <vehicle id='N_S_65' type='standard_car' route='N_S' depart='170.0' departLane='random' departSpeed='10' />
    <vehicle id='N_S_66' type='standard_car' route='N_S' depart='171.0' departLane='random' departSpeed='10' />
    <vehicle id='S_N_67' type='standard_car' route='S_N' depart='172.0' departLane='random' departSpeed='10' />
    <vehicle id='N_S_68' type='standard_car' route='N_S' depart='173.0' departLane='random' departSpeed='10' />
    <vehicle id='E_W_69' type='standard_car' route='E_W' depart='174.0' departLane='random' departSpeed='10' />
    <vehicle id='W_E_70' type='standard_car' route='W_E' depart='175.0' departLane='random' departSpeed='10' />
    <vehicle id='S_N_71' type='standard_car' route='S_N' depart='175.0' departLane='random' departSpeed='10' />
    <vehicle id='W_S_72' type='standard_car' route='W_S' depart='175.0' departLane='random' departSpeed='10' />
    <vehicle id='S_E_73' type='standard_car' route='S_E' depart='178.0' departLane='random' departSpeed='10' />
    <vehicle id='E_W_74' type='standard_car' route='E_W' depart='180.0' departLane='random' departSpeed='10' />
    <vehicle id='W_S_75' type='standard_car' route='W_S' depart='181.0' departLane='random' departSpeed='10' />
    <vehicle id='N_S_76' type='standard_car' route='N_S' depart='181.0' departLane='random' departSpeed='10' />
    <vehicle id='S_E_77' type='standard_car' route='S_E' depart='183.0' departLane='random' departSpeed='10' />
    <vehicle id='N_S_78' type='standard_car' route='N_S' depart='183.0' departLane='random' departSpeed='10' />
    <vehicle id='W_E_79' type='standard_car' route='W_E' depart='185.0' departLane='random' departSpeed='10' />
    <vehicle id='N_W_80' type='standard_car' route='N_W' depart='186.0' departLane='random' departSpeed='10' />
    <vehicle id='S_E_81' type='standard_car' route='S_E' depart='186.0' departLane='random' departSpeed='10' />
    <vehicle id='E_W_82' type='standard_car' route='E_W' depart='187.0' departLane='random' departSpeed='10' />
    <vehicle id='N_W_83' type='standard_car' route='N_W' depart='192.0' departLane='random' departSpeed='10' />
    <vehicle id='N_S_84' type='standard_car' route='N_S' depart='192.0' departLane='random' departSpeed='10' />
    <vehicle id='E_W_85' type='standard_car' route='E_W' depart='193.0' departLane='random' departSpeed='10' />
    <vehicle id='S_N_86' type='standard_car' route='S_N' depart='194.0' departLane='random' departSpeed='10' />
    <vehicle id='W_E_87' type='standard_car' route='W_E' depart='195.0' departLane='random' departSpeed='10' />
    <vehicle id='S_N_88' type='standard_car' route='S_N' depart='196.0' departLane='random' departSpeed='10' />
    <vehicle id='N_S_89' type='standard_car' route='N_S' depart='197.0' departLane='random' departSpeed='10' />
    <vehicle id='S_N_90' type='standard_car' route='S_N' depart='199.0' departLane='random' departSpeed='10' />
    <vehicle id='S_N_91' type='standard_car' route='S_N' depart='200.0' departLane='random' departSpeed='10' />
    <vehicle id='N_S_92' type='standard_car' route='N_S' depart='200.0' departLane='random' departSpeed='10' />
    <vehicle id='S_E_93' type='standard_car' route='S_E' depart='202.0' departLane='random' departSpeed='10' />
    <vehicle id='E_W_94' type='standard_car' route='E_W' depart='203.0' departLane='random' departSpeed='10' />
    <vehicle id='N_W_95' type='standard_car' route='N_W' depart='207.0' departLane='random' departSpeed='10' />
    <vehicle id='S_N_96' type='standard_car' route='S_N' depart='207.0' departLane='random' departSpeed='10' />
    <vehicle id='E_W_97' type='standard_car' route='E_W' depart='207.0' departLane='random' departSpeed='10' />
    <vehicle id='N_S_98' type='standard_car' route='N_S' depart='208.0' departLane='random' departSpeed='10' />
    <vehicle id='W_E_99' type='standard_car' route='W_E' depart='209.0' departLane='random' departSpeed='10' />
    <vehicle id='N_S_100' type='standard_car' route='N_S' depart='209.0' departLane='random' departSpeed='10' />
    <vehicle id='W_E_101' type='standard_car' route='W_E' depart='210.0' departLane='random' departSpeed='10' />
    <vehicle id='E_N_102' type='standard_car' route='E_N' depart='210.0' departLane='random' departSpeed='10' />
    <vehicle id='S_N_103' type='standard_car' route='S_N' depart='214.0' departLane='random' departSpeed='10' />
    <vehicle id='N_W_104' type='standard_car' route='N_W' depart='214.0' departLane='random' departSpeed='10' />
    <vehicle id='W_E_105' type='standard_car' route='W_E' depart='214.0' departLane='random' departSpeed='10' />
    <vehicle id='N_W_106' type='standard_car' route='N_W' depart='216.0' departLane='random' departSpeed='10' />
    <vehicle id='E_N_107' type='standard_car' route='E_N' depart='216.0' departLane='random' departSpeed='10' />
    <vehicle id='N_S_108' type='standard_car' route='N_S' depart='218.0' departLane='random' departSpeed='10' />
    <vehicle id='E_W_109' type='standard_car' route='E_W' depart='219.0' departLane='random' departSpeed='10' />
    <vehicle id='E_W_110' type='standard_car' route='E_W' depart='220.0' departLane='random' departSpeed='10' />
    <vehicle id='W_S_111' type='standard_car' route='W_S' depart='223.0' departLane='random' departSpeed='10' />
    <vehicle id='W_E_112' type='standard_car' route='W_E' depart='223.0' departLane='random' departSpeed='10' />
    <vehicle id='N_S_113' type='standard_car' route='N_S' depart='225.0' departLane='random' departSpeed='10' />
    <vehicle id='E_N_114' type='standard_car' route='E_N' depart='228.0' departLane='random' departSpeed='10' />
    <vehicle id='S_N_115' type='standard_car' route='S_N' depart='228.0' departLane='random' departSpeed='10' />
    <vehicle id='N_W_116' type='standard_car' route='N_W' depart='230.0' departLane='random' departSpeed='10' />
    <vehicle id='E_W_117' type='standard_car' route='E_W' depart='231.0' departLane='random' departSpeed='10' />
    <vehicle id='N_S_118' type='standard_car' route='N_S' depart='231.0' departLane='random' departSpeed='10' />
    <vehicle id='S_N_119' type='standard_car' route='S_N' depart='232.0' departLane='random' departSpeed='10' />
    <vehicle id='S_E_120' type='standard_car' route='S_E' depart='233.0' departLane='random' departSpeed='10' />
    <vehicle id='W_E_121' type='standard_car' route='W_E' depart='234.0' departLane='random' departSpeed='10' />
    <vehicle id='W_E_122' type='standard_car' route='W_E' depart='234.0' departLane='random' departSpeed='10' />
    <vehicle id='N_S_123' type='standard_car' route='N_S' depart='234.0' departLane='random' departSpeed='10' />
    <vehicle id='S_E_124' type='standard_car' route='S_E' depart='234.0' departLane='random' departSpeed='10' />
    <vehicle id='W_E_125' type='standard_car' route='W_E' depart='236.0' departLane='random' departSpeed='10' />
    <vehicle id='S_N_126' type='standard_car' route='S_N' depart='236.0' departLane='random' departSpeed='10' />
    <vehicle id='S_N_127' type='standard_car' route='S_N' depart='240.0' departLane='random' departSpeed='10' />
    <vehicle id='N_W_128' type='standard_car' route='N_W' depart='240.0' departLane='random' departSpeed='10' />
    <vehicle id='N_S_129' type='standard_car' route='N_S' depart='240.0' departLane='random' departSpeed='10' />
    <vehicle id='S_E_130' type='standard_car' route='S_E' depart='241.0' departLane='random' departSpeed='10' />
    <vehicle id='S_N_131' type='standard_car' route='S_N' depart='241.0' departLane='random' departSpeed='10' />
    <vehicle id='S_E_132' type='standard_car' route='S_E' depart='242.0' departLane='random' departSpeed='10' />
    <vehicle id='N_S_133' type='standard_car' route='N_S' depart='243.0' departLane='random' departSpeed='10' />
    <vehicle id='W_S_134' type='standard_car' route='W_S' depart='244.0' departLane='random' departSpeed='10' />
    <vehicle id='W_S_135' type='standard_car' route='W_S' depart='245.0' departLane='random' departSpeed='10' />
    <vehicle id='S_E_136' type='standard_car' route='S_E' depart='246.0' departLane='random' departSpeed='10' />
    <vehicle id='E_W_137' type='standard_car' route='E_W' depart='247.0' departLane='random' departSpeed='10' />
    <vehicle id='N_S_138' type='standard_car' route='N_S' depart='248.0' departLane='random' departSpeed='10' />
    <vehicle id='E_N_139' type='standard_car' route='E_N' depart='248.0' departLane='random' departSpeed='10' />
    <vehicle id='W_E_140' type='standard_car' route='W_E' depart='248.0' departLane='random' departSpeed='10' />
    <vehicle id='S_E_141' type='standard_car' route='S_E' depart='248.0' departLane='random' departSpeed='10' />
    <vehicle id='E_N_142' type='standard_car' route='E_N' depart='249.0' departLane='random' departSpeed='10' />
    <vehicle id='E_W_143' type='standard_car' route='E_W' depart='249.0' departLane='random' departSpeed='10' />
    <vehicle id='N_S_144' type='standard_car' route='N_S' depart='253.0' departLane='random' departSpeed='10' />
    <vehicle id='N_W_145' type='standard_car' route='N_W' depart='254.0' departLane='random' departSpeed='10' />
    <vehicle id='S_N_146' type='standard_car' route='S_N' depart='255.0' departLane='random' departSpeed='10' />
    <vehicle id='E_N_147' type='standard_car' route='E_N' depart='257.0' departLane='random' departSpeed='10' />
    <vehicle id='S_N_148' type='standard_car' route='S_N' depart='257.0' departLane='random' departSpeed='10' />
    <vehicle id='E_W_149' type='standard_car' route='E_W' depart='259.0' departLane='random' departSpeed='10' />
    <vehicle id='E_W_150' type='standard_car' route='E_W' depart='260.0' departLane='random' departSpeed='10' />
    <vehicle id='W_S_151' type='standard_car' route='W_S' depart='262.0' departLane='random' departSpeed='10' />
    <vehicle id='N_W_152' type='standard_car' route='N_W' depart='263.0' departLane='random' departSpeed='10' />
    <vehicle id='W_S_153' type='standard_car' route='W_S' depart='264.0' departLane='random' departSpeed='10' />
    <vehicle id='S_E_154' type='standard_car' route='S_E' depart='265.0' departLane='random' departSpeed='10' />
    <vehicle id='N_W_155' type='standard_car' route='N_W' depart='266.0' departLane='random' departSpeed='10' />
    <vehicle id='E_N_156' type='standard_car' route='E_N' depart='267.0' departLane='random' departSpeed='10' />
    <vehicle id='W_S_157' type='standard_car' route='W_S' depart='269.0' departLane='random' departSpeed='10' />
    <vehicle id='N_S_158' type='standard_car' route='N_S' depart='269.0' departLane='random' departSpeed='10' />
    <vehicle id='E_W_159' type='standard_car' route='E_W' depart='275.0' departLane='random' departSpeed='10' />
    <vehicle id='E_N_160' type='standard_car' route='E_N' depart='275.0' departLane='random' departSpeed='10' />
    <vehicle id='E_W_161' type='standard_car' route='E_W' depart='276.0' departLane='random' departSpeed='10' />
    <vehicle id='W_S_162' type='standard_car' route='W_S' depart='277.0' departLane='random' departSpeed='10' />
    <vehicle id='S_N_163' type='standard_car' route='S_N' depart='278.0' departLane='random' departSpeed='10' />
    <vehicle id='N_W_164' type='standard_car' route='N_W' depart='278.0' departLane='random' departSpeed='10' />
    <vehicle id='E_W_165' type='standard_car' route='E_W' depart='278.0' departLane='random' departSpeed='10' />
    <vehicle id='N_S_166' type='standard_car' route='N_S' depart='278.0' departLane='random' departSpeed='10' />
    <vehicle id='S_E_167' type='standard_car' route='S_E' depart='280.0' departLane='random' departSpeed='10' />
    <vehicle id='S_N_168' type='standard_car' route='S_N' depart='280.0' departLane='random' departSpeed='10' />
    <vehicle id='W_S_169' type='standard_car' route='W_S' depart='281.0' departLane='random' departSpeed='10' />
    <vehicle id='S_N_170' type='standard_car' route='S_N' depart='281.0' departLane='random' departSpeed='10' />
    <vehicle id='W_S_171' type='standard_car' route='W_S' depart='282.0' departLane='random' departSpeed='10' />
    <vehicle id='W_S_172' type='standard_car' route='W_S' depart='282.0' departLane='random' departSpeed='10' />
    <vehicle id='S_E_173' type='standard_car' route='S_E' depart='284.0' departLane='random' departSpeed='10' />
    <vehicle id='W_S_174' type='standard_car' route='W_S' depart='285.0' departLane='random' departSpeed='10' />
    <vehicle id='W_E_175' type='standard_car' route='W_E' depart='286.0' departLane='random' departSpeed='10' />
    <vehicle id='E_N_176' type='standard_car' route='E_N' depart='288.0' departLane='random' departSpeed='10' />
    <vehicle id='W_E_177' type='standard_car' route='W_E' depart='288.0' departLane='random' departSpeed='10' />
    <vehicle id='N_S_178' type='standard_car' route='N_S' depart='288.0' departLane='random' departSpeed='10' />
    <vehicle id='S_E_179' type='standard_car' route='S_E' depart='288.0' departLane='random' departSpeed='10' />
    <vehicle id='W_E_180' type='standard_car' route='W_E' depart='289.0' departLane='random' departSpeed='10' />
    <vehicle id='N_W_181' type='standard_car' route='N_W' depart='290.0' departLane='random' departSpeed='10' />
    <vehicle id='W_E_182' type='standard_car' route='W_E' depart='290.0' departLane='random' departSpeed='10' />
    <vehicle id='E_W_183' type='standard_car' route='E_W' depart='290.0' departLane='random' departSpeed='10' />
    <vehicle id='S_N_184' type='standard_car' route='S_N' depart='293.0' departLane='random' departSpeed='10' />
    <vehicle id='N_S_185' type='standard_car' route='N_S' depart='294.0' departLane='random' departSpeed='10' />
    <vehicle id='S_N_186' type='standard_car' route='S_N' depart='297.0' departLane='random' departSpeed='10' />
    <vehicle id='N_W_187' type='standard_car' route='N_W' depart='298.0' departLane='random' departSpeed='10' />
    <vehicle id='W_E_188' type='standard_car' route='W_E' depart='300.0' departLane='random' departSpeed='10' />
    <vehicle id='N_S_189' type='standard_car' route='N_S' depart='301.0' departLane='random' departSpeed='10' />
    <vehicle id='W_E_190' type='standard_car' route='W_E' depart='302.0' departLane='random' departSpeed='10' />
    <vehicle id='S_E_191' type='standard_car' route='S_E' depart='302.0' departLane='random' departSpeed='10' />
    <vehicle id='S_N_192' type='standard_car' route='S_N' depart='303.0' departLane='random' departSpeed='10' />
    <vehicle id='N_S_193' type='standard_car' route='N_S' depart='304.0' departLane='random' departSpeed='10' />
    <vehicle id='N_S_194' type='standard_car' route='N_S' depart='306.0' departLane='random' departSpeed='10' />
    <vehicle id='W_E_195' type='standard_car' route='W_E' depart='306.0' departLane='random' departSpeed='10' />
    <vehicle id='E_W_196' type='standard_car' route='E_W' depart='307.0' departLane='random' departSpeed='10' />
    <vehicle id='S_N_197' type='standard_car' route='S_N' depart='309.0' departLane='random' departSpeed='10' />
    <vehicle id='S_N_198' type='standard_car' route='S_N' depart='309.0' departLane='random' departSpeed='10' />
    <vehicle id='S_N_199' type='standard_car' route='S_N' depart='310.0' departLane='random' departSpeed='10' />
    <vehicle id='W_E_200' type='standard_car' route='W_E' depart='310.0' departLane='random' departSpeed='10' />
    <vehicle id='E_W_201' type='standard_car' route='E_W' depart='311.0' departLane='random' departSpeed='10' />
    <vehicle id='E_W_202' type='standard_car' route='E_W' depart='312.0' departLane='random' departSpeed='10' />
    <vehicle id='S_E_203' type='standard_car' route='S_E' depart='312.0' departLane='random' departSpeed='10' />
    <vehicle id='N_S_204' type='standard_car' route='N_S' depart='314.0' departLane='random' departSpeed='10' />
    <vehicle id='N_S_205' type='standard_car' route='N_S' depart='315.0' departLane='random' departSpeed='10' />
    <vehicle id='W_S_206' type='standard_car' route='W_S' depart='315.0' departLane='random' departSpeed='10' />
    <vehicle id='S_N_207' type='standard_car' route='S_N' depart='316.0' departLane='random' departSpeed='10' />
    <vehicle id='N_S_208' type='standard_car' route='N_S' depart='316.0' departLane='random' departSpeed='10' />
    <vehicle id='E_W_209' type='standard_car' route='E_W' depart='316.0' departLane='random' departSpeed='10' />
    <vehicle id='N_S_210' type='standard_car' route='N_S' depart='317.0' departLane='random' departSpeed='10' />
    <vehicle id='N_W_211' type='standard_car' route='N_W' depart='317.0' departLane='random' departSpeed='10' />
    <vehicle id='N_S_212' type='standard_car' route='N_S' depart='317.0' departLane='random' departSpeed='10' />
    <vehicle id='E_W_213' type='standard_car' route='E_W' depart='318.0' departLane='random' departSpeed='10' />
    <vehicle id='N_S_214' type='standard_car' route='N_S' depart='318.0' departLane='random' departSpeed='10' />
    <vehicle id='N_S_215' type='standard_car' route='N_S' depart='318.0' departLane='random' departSpeed='10' />
    <vehicle id='N_S_216' type='standard_car' route='N_S' depart='319.0' departLane='random' departSpeed='10' />
    <vehicle id='N_S_217' type='standard_car' route='N_S' depart='319.0' departLane='random' departSpeed='10' />
    <vehicle id='W_E_218' type='standard_car' route='W_E' depart='320.0' departLane='random' departSpeed='10' />
    <vehicle id='W_E_219' type='standard_car' route='W_E' depart='320.0' departLane='random' departSpeed='10' />
    <vehicle id='E_N_220' type='standard_car' route='E_N' depart='321.0' departLane='random' departSpeed='10' />
    <vehicle id='E_W_221' type='standard_car' route='E_W' depart='322.0' departLane='random' departSpeed='10' />
    <vehicle id='S_N_222' type='standard_car' route='S_N' depart='324.0' departLane='random' departSpeed='10' />
    <vehicle id='S_E_223' type='standard_car' route='S_E' depart='324.0' departLane='random' departSpeed='10' />
    <vehicle id='N_S_224' type='standard_car' route='N_S' depart='325.0' departLane='random' departSpeed='10' />
    <vehicle id='W_E_225' type='standard_car' route='W_E' depart='325.0' departLane='random' departSpeed='10' />
    <vehicle id='E_N_226' type='standard_car' route='E_N' depart='326.0' departLane='random' departSpeed='10' />
    <vehicle id='S_E_227' type='standard_car' route='S_E' depart='327.0' departLane='random' departSpeed='10' />
    <vehicle id='S_N_228' type='standard_car' route='S_N' depart='330.0' departLane='random' departSpeed='10' />
    <vehicle id='W_E_229' type='standard_car' route='W_E' depart='330.0' departLane='random' departSpeed='10' />
    <vehicle id='E_W_230' type='standard_car' route='E_W' depart='330.0' departLane='random' departSpeed='10' />
    <vehicle id='S_E_231' type='standard_car' route='S_E' depart='330.0' departLane='random' departSpeed='10' />
    <vehicle id='S_N_232' type='standard_car' route='S_N' depart='331.0' departLane='random' departSpeed='10' />
    <vehicle id='W_S_233' type='standard_car' route='W_S' depart='331.0' departLane='random' departSpeed='10' />
    <vehicle id='N_S_234' type='standard_car' route='N_S' depart='334.0' departLane='random' departSpeed='10' />
    <vehicle id='S_E_235' type='standard_car' route='S_E' depart='334.0' departLane='random' departSpeed='10' />
    <vehicle id='S_E_236' type='standard_car' route='S_E' depart='334.0' departLane='random' departSpeed='10' />
    <vehicle id='N_S_237' type='standard_car' route='N_S' depart='335.0' departLane='random' departSpeed='10' />
    <vehicle id='E_W_238' type='standard_car' route='E_W' depart='335.0' departLane='random' departSpeed='10' />
    <vehicle id='S_N_239' type='standard_car' route='S_N' depart='335.0' departLane='random' departSpeed='10' />
    <vehicle id='N_S_240' type='standard_car' route='N_S' depart='335.0' departLane='random' departSpeed='10' />
    <vehicle id='S_N_241' type='standard_car' route='S_N' depart='336.0' departLane='random' departSpeed='10' />
    <vehicle id='S_E_242' type='standard_car' route='S_E' depart='341.0' departLane='random' departSpeed='10' />
    <vehicle id='W_S_243' type='standard_car' route='W_S' depart='341.0' departLane='random' departSpeed='10' />
    <vehicle id='N_S_244' type='standard_car' route='N_S' depart='341.0' departLane='random' departSpeed='10' />
    <vehicle id='N_S_245' type='standard_car' route='N_S' depart='342.0' departLane='random' departSpeed='10' />
    <vehicle id='N_S_246' type='standard_car' route='N_S' depart='344.0' departLane='random' departSpeed='10' />
    <vehicle id='W_E_247' type='standard_car' route='W_E' depart='344.0' departLane='random' departSpeed='10' />
    <vehicle id='E_W_248' type='standard_car' route='E_W' depart='347.0' departLane='random' departSpeed='10' />
    <vehicle id='E_N_249' type='standard_car' route='E_N' depart='347.0' departLane='random' departSpeed='10' />
    <vehicle id='N_S_250' type='standard_car' route='N_S' depart='350.0' departLane='random' departSpeed='10' />
    <vehicle id='S_E_251' type='standard_car' route='S_E' depart='351.0' departLane='random' departSpeed='10' />
    <vehicle id='W_E_252' type='standard_car' route='W_E' depart='351.0' departLane='random' departSpeed='10' />
    <vehicle id='E_W_253' type='standard_car' route='E_W' depart='353.0' departLane='random' departSpeed='10' />
    <vehicle id='N_S_254' type='standard_car' route='N_S' depart='354.0' departLane='random' departSpeed='10' />
    <vehicle id='N_S_255' type='standard_car' route='N_S' depart='354.0' departLane='random' departSpeed='10' />
    <vehicle id='S_E_256' type='standard_car' route='S_E' depart='355.0' departLane='random' departSpeed='10' />
    <vehicle id='W_S_257' type='standard_car' route='W_S' depart='355.0' departLane='random' departSpeed='10' />
    <vehicle id='S_E_258' type='standard_car' route='S_E' depart='357.0' departLane='random' departSpeed='10' />
    <vehicle id='E_N_259' type='standard_car' route='E_N' depart='357.0' departLane='random' departSpeed='10' />