<routes>
    <vType id="standard_car" length="5.0" maxSpeed="15" minGap="2.5" accel="2.0" decel="4.5" />
    <route id="N_S" edges="road_1_2_3 road_1_1_3"/>
    <route id="N_E" edges="road_1_2_3 road_1_1_0"/>
    <route id="N_W" edges="road_1_2_3 road_1_1_2"/>
    <route id="S_W" edges="road_1_0_1 road_1_1_2"/>
    <route id="S_E" edges="road_1_0_1 road_1_1_0"/>
    <route id="S_N" edges="road_1_0_1 road_1_1_1"/>

    <route id="W_E" edges="road_0_1_0 road_1_1_0"/>
    <route id="W_N" edges="road_0_1_0 road_1_1_1"/>
    <route id="W_S" edges="road_0_1_0 road_1_1_3"/>
    <route id="E_N" edges="road_2_1_2 road_1_1_1"/>
    <route id="E_S" edges="road_2_1_2 road_1_1_3"/>
    <route id="E_W" edges="road_2_1_2 road_1_1_2"/>
            
    <vehicle id='E_W_0' type='standard_car' route='E_W' depart='7.0' departLane='random' departSpeed='10' />
    <vehicle id='N_W_1' type='standard_car' route='N_W' depart='22.0' departLane='random' departSpeed='10' />
    <vehicle id='S_N_2' type='standard_car' route='S_N' depart='36.0' departLane='random' departSpeed='10' />
    <vehicle id='N_W_3' type='standard_car' route='N_W' depart='37.0' departLane='random' departSpeed='10' />
    <vehicle id='N_S_4' type='standard_car' route='N_S' depart='39.0' departLane='random' departSpeed='10' />
    <vehicle id='S_E_5' type='standard_car' route='S_E' depart='45.0' departLane='random' departSpeed='10' />
    <vehicle id='N_W_6' type='standard_car' route='N_W' depart='50.0' departLane='random' departSpeed='10' />
    <vehicle id='S_E_7' type='standard_car' route='S_E' depart='67.0' departLane='random' departSpeed='10' />
    <vehicle id='N_S_8' type='standard_car' route='N_S' depart='68.0' departLane='random' departSpeed='10' />
    <vehicle id='E_N_9' type='standard_car' route='E_N' depart='73.0' departLane='random' departSpeed='10' />
    <vehicle id='E_N_10' type='standard_car' route='E_N' depart='76.0' departLane='random' departSpeed='10' />
    <vehicle id='W_E_11' type='standard_car' route='W_E' depart='77.0' departLane='random' departSpeed='10' />
    <vehicle id='S_N_12' type='standard_car' route='S_N' depart='82.0' departLane='random' departSpeed='10' />
    <vehicle id='W_S_13' type='standard_car' route='W_S' depart='83.0' departLane='random' departSpeed='10' />
    <vehicle id='E_W_14' type='standard_car' route='E_W' depart='85.0' departLane='random' departSpeed='10' />
    <vehicle id='W_E_15' type='standard_car' route='W_E' depart='86.0' departLane='random' departSpeed='10' />
    <vehicle id='N_S_16' type='standard_car' route='N_S' depart='97.0' departLane='random' departSpeed='10' />
    <vehicle id='E_N_17' type='standard_car' route='E_N' depart='100.0' departLane='random' departSpeed='10' />
    <vehicle id='E_N_18' type='standard_car' route='E_N' depart='102.0' departLane='random' departSpeed='10' />
    <vehicle id='N_S_19' type='standard_car' route='N_S' depart='104.0' departLane='random' departSpeed='10' />
    <vehicle id='W_E_20' type='standard_car' route='W_E' depart='106.0' departLane='random' departSpeed='10' />
    <vehicle id='E_N_21' type='standard_car' route='E_N' depart='107.0' departLane='random' departSpeed='10' />
    <vehicle id='N_S_22' type='standard_car' route='N_S' depart='111.0' departLane='random' departSpeed='10' />
    <vehicle id='E_N_23' type='standard_car' route='E_N' depart='113.0' departLane='random' departSpeed='10' />
    <vehicle id='E_W_24' type='standard_car' route='E_W' depart='114.0' departLane='random' departSpeed='10' />
    <vehicle id='E_W_25' type='standard_car' route='E_W' depart='114.0' departLane='random' departSpeed='10' />
    <vehicle id='W_S_26' type='standard_car' route='W_S' depart='122.0' departLane='random' departSpeed='10' />
    <vehicle id='W_S_27' type='standard_car' route='W_S' depart='124.0' departLane='random' departSpeed='10' />
    <vehicle id='W_S_28' type='standard_car' route='W_S' depart='126.0' departLane='random' departSpeed='10' />
    <vehicle id='W_S_29' type='standard_car' route='W_S' depart='126.0' departLane='random' departSpeed='10' />
    <vehicle id='N_S_30' type='standard_car' route='N_S' depart='128.0' departLane='random' departSpeed='10' />
    <vehicle id='N_S_31' type='standard_car' route='N_S' depart='130.0' departLane='random' departSpeed='10' />
    <vehicle id='N_S_32' type='standard_car' route='N_S' depart='130.0' departLane='random' departSpeed='10' />
    <vehicle id='S_E_33' type='standard_car' route='S_E' depart='132.0' departLane='random' departSpeed='10' />
    <vehicle id='S_N_34' type='standard_car' route='S_N' depart='133.0' departLane='random' departSpeed='10' />
    <vehicle id='S_N_35' type='standard_car' route='S_N' depart='137.0' departLane='random' departSpeed='10' />
    <vehicle id='N_W_36' type='standard_car' route='N_W' depart='140.0' departLane='random' departSpeed='10' />
    <vehicle id='E_N_37' type='standard_car' route='E_N' depart='142.0' departLane='random' departSpeed='10' />
    <vehicle id='W_E_38' type='standard_car' route='W_E' depart='143.0' departLane='random' departSpeed='10' />
    <vehicle id='N_S_39' type='standard_car' route='N_S' depart='152.0' departLane='random' departSpeed='10' />
    <vehicle id='N_W_40' type='standard_car' route='N_W' depart='154.0' departLane='random' departSpeed='10' />
    <vehicle id='W_S_41' type='standard_car' route='W_S' depart='154.0' departLane='random' departSpeed='10' />
    <vehicle id='W_S_42' type='standard_car' route='W_S' depart='163.0' departLane='random' departSpeed='10' />
    <vehicle id='N_W_43' type='standard_car' route='N_W' depart='163.0' departLane='random' departSpeed='10' />
    <vehicle id='N_S_44' type='standard_car' route='N_S' depart='164.0' departLane='random' departSpeed='10' />
    <vehicle id='E_N_45' type='standard_car' route='E_N' depart='172.0' departLane='random' departSpeed='10' />
    <vehicle id='N_S_46' type='standard_car' route='N_S' depart='175.0' departLane='random' departSpeed='10' />
    <vehicle id='E_N_47' type='standard_car' route='E_N' depart='179.0' departLane='random' departSpeed='10' />
    <vehicle id='E_W_48' type='standard_car' route='E_W' depart='184.0' departLane='random' departSpeed='10' />
    <vehicle id='W_E_49' type='standard_car' route='W_E' depart='184.0' departLane='random' departSpeed='10' />
    <vehicle id='W_S_50' type='standard_car' route='W_S' depart='185.0' departLane='random' departSpeed='10' />
    <vehicle id='W_E_51' type='standard_car' route='W_E' depart='186.0' departLane='random' departSpeed='10' />
    <vehicle id='S_N_52' type='standard_car' route='S_N' depart='188.0' departLane='random' departSpeed='10' />
    <vehicle id='W_E_53' type='standard_car' route='W_E' depart='188.0' departLane='random' departSpeed='10' />
    <vehicle id='E_N_54' type='standard_car' route='E_N' depart='188.0' departLane='random' departSpeed='10' />
    <vehicle id='W_S_55' type='standard_car' route='W_S' depart='190.0' departLane='random' departSpeed='10' />
    <vehicle id='W_S_56' type='standard_car' route='W_S' depart='191.0' departLane='random' departSpeed='10' />
    <vehicle id='S_N_57' type='standard_car' route='S_N' depart='192.0' departLane='random' departSpeed='10' />
    <vehicle id='E_N_58' type='standard_car' route='E_N' depart='196.0' departLane='random' departSpeed='10' />
    <vehicle id='W_S_59' type='standard_car' route='W_S' depart='200.0' departLane='random' departSpeed='10' />
    <vehicle id='W_E_60' type='standard_car' route='W_E' depart='202.0' departLane='random' departSpeed='10' />
    <vehicle id='E_N_61' type='standard_car' route='E_N' depart='203.0' departLane='random' departSpeed='10' />
    <vehicle id='E_W_62' type='standard_car' route='E_W' depart='207.0' departLane='random' departSpeed='10' />
    <vehicle id='N_W_63' type='standard_car' route='N_W' depart='209.0' departLane='random' departSpeed='10' />
    <vehicle id='W_E_64' type='standard_car' route='W_E' depart='210.0' departLane='random' departSpeed='10' />
    <vehicle id='W_E_65' type='standard_car' route='W_E' depart='211.0' departLane='random' departSpeed='10' />
    <vehicle id='S_N_66' type='standard_car' route='S_N' depart='214.0' departLane='random' departSpeed='10' />
    <vehicle id='W_S_67' type='standard_car' route='W_S' depart='214.0' departLane='random' departSpeed='10' />
    <vehicle id='W_S_68' type='standard_car' route='W_S' depart='215.0' departLane='random' departSpeed='10' />
    <vehicle id='W_S_69' type='standard_car' route='W_S' depart='217.0' departLane='random' departSpeed='10' />
    <vehicle id='S_N_70' type='standard_car' route='S_N' depart='219.0' departLane='random' departSpeed='10' />
    <vehicle id='S_N_71' type='standard_car' route='S_N' depart='219.0' departLane='random' departSpeed='10' />
    <vehicle id='W_S_72' type='standard_car' route='W_S' depart='222.0' departLane='random' departSpeed='10' />
    <vehicle id='W_E_73' type='standard_car' route='W_E' depart='222.0' departLane='random' departSpeed='10' />
    <vehicle id='S_E_74' type='standard_car' route='S_E' depart='223.0' departLane='random' departSpeed='10' />
    <vehicle id='W_S_75' type='standard_car' route='W_S' depart='225.0' departLane='random' departSpeed='10' />
    <vehicle id='S_N_76' type='standard_car' route='S_N' depart='225.0' departLane='random' departSpeed='10' />
    <vehicle id='S_E_77' type='standard_car' route='S_E' depart='226.0' departLane='random' departSpeed='10' />
    <vehicle id='S_N_78' type='standard_car' route='S_N' depart='227.0' departLane='random' departSpeed='10' />
    <vehicle id='W_E_79' type='standard_car' route='W_E' depart='227.0' departLane='random' departSpeed='10' />
    <vehicle id='E_W_80' type='standard_car' route='E_W' depart='229.0' departLane='random' departSpeed='10' />
    <vehicle id='S_N_81' type='standard_car' route='S_N' depart='229.0' departLane='random' departSpeed='10' />
    <vehicle id='E_W_82' type='standard_car' route='E_W' depart='235.0' departLane='random' departSpeed='10' />
    <vehicle id='S_E_83' type='standard_car' route='S_E' depart='235.0' departLane='random' departSpeed='10' />
    <vehicle id='N_W_84' type='standard_car' route='N_W' depart='238.0' departLane='random' departSpeed='10' />
    <vehicle id='E_W_85' type='standard_car' route='E_W' depart='238.0' departLane='random' departSpeed='10' />
    <vehicle id='N_W_86' type='standard_car' route='N_W' depart='239.0' departLane='random' departSpeed='10' />
    <vehicle id='N_W_87' type='standard_car' route='N_W' depart='240.0' departLane='random' departSpeed='10' />
    <vehicle id='N_S_88' type='standard_car' route='N_S' depart='240.0' departLane='random' departSpeed='10' />
    <vehicle id='S_E_89' type='standard_car' route='S_E' depart='243.0' departLane='random' departSpeed='10' />
    <vehicle id='E_W_90' type='standard_car' route='E_W' depart='244.0' departLane='random' departSpeed='10' />
    <vehicle id='E_N_91' type='standard_car' route='E_N' depart='247.0' departLane='random' departSpeed='10' />
    <vehicle id='E_W_92' type='standard_car' route='E_W' depart='248.0' departLane='random' departSpeed='10' />
    <vehicle id='N_W_93' type='standard_car' route='N_W' depart='249.0' departLane='random' departSpeed='10' />
    <vehicle id='W_S_94' type='standard_car' route='W_S' depart='249.0' departLane='random' departSpeed='10' />
    <vehicle id='W_E_95' type='standard_car' route='W_E' depart='249.0' departLane='random' departSpeed='10' />
    <vehicle id='S_N_96' type='standard_car' route='S_N' depart='251.0' departLane='random' departSpeed='10' />
    <vehicle id='N_S_97' type='standard_car' route='N_S' depart='252.0' departLane='random' departSpeed='10' />
    <vehicle id='N_W_98' type='standard_car' route='N_W' depart='253.0' departLane='random' departSpeed='10' />
    <vehicle id='E_W_99' type='standard_car' route='E_W' depart='255.0' departLane='random' departSpeed='10' />
    <vehicle id='N_S_100' type='standard_car' route='N_S' depart='255.0' departLane='random' departSpeed='10' />
    <vehicle id='W_E_101' type='standard_car' route='W_E' depart='255.0' departLane='random' departSpeed='10' />
    <vehicle id='S_E_102' type='standard_car' route='S_E' depart='256.0' departLane='random' departSpeed='10' />
    <vehicle id='W_S_103' type='standard_car' route='W_S' depart='257.0' departLane='random' departSpeed='10' />
    <vehicle id='W_S_104' type='standard_car' route='W_S' depart='258.0' departLane='random' departSpeed='10' />
    <vehicle id='S_N_105' type='standard_car' route='S_N' depart='260.0' departLane='random' departSpeed='10' />
    <vehicle id='N_S_106' type='standard_car' route='N_S' depart='261.0' departLane='random' departSpeed='10' />
    <vehicle id='W_E_107' type='standard_car' route='W_E' depart='265.0' departLane='random' departSpeed='10' />
    <vehicle id='E_W_108' type='standard_car' route='E_W' depart='265.0' departLane='random' departSpeed='10' />
    <vehicle id='S_N_109' type='standard_car' route='S_N' depart='266.0' departLane='random' departSpeed='10' />
    <vehicle id='S_N_110' type='standard_car' route='S_N' depart='268.0' departLane='random' departSpeed='10' />
    <vehicle id='S_E_111' type='standard_car' route='S_E' depart='270.0' departLane='random' departSpeed='10' />
    <vehicle id='E_W_112' type='standard_car' route='E_W' depart='271.0' departLane='random' departSpeed='10' />
    <vehicle id='S_E_113' type='standard_car' route='S_E' depart='272.0' departLane='random' departSpeed='10' />
    <vehicle id='E_N_114' type='standard_car' route='E_N' depart='273.0' departLane='random' departSpeed='10' />
    <vehicle id='N_S_115' type='standard_car' route='N_S' depart='274.0' departLane='random' departSpeed='10' />
    <vehicle id='N_W_116' type='standard_car' route='N_W' depart='278.0' departLane='random' departSpeed='10' />
    <vehicle id='S_E_117' type='standard_car' route='S_E' depart='279.0' departLane='random' departSpeed='10' />
    <vehicle id='S_N_118' type='standard_car' route='S_N' depart='283.0' departLane='random' departSpeed='10' />
    <vehicle id='S_E_119' type='standard_car' route='S_E' depart='285.0' departLane='random' departSpeed='10' />
    <vehicle id='N_S_120' type='standard_car' route='N_S' depart='287.0' departLane='random' departSpeed='10' />
    <vehicle id='W_E_121' type='standard_car' route='W_E' depart='288.0' departLane='random' departSpeed='10' />
    <vehicle id='W_S_122' type='standard_car' route='W_S' depart='288.0' departLane='random' departSpeed='10' />
    <vehicle id='E_W_123' type='standard_car' route='E_W' depart='288.0' departLane='random' departSpeed='10' />
    <vehicle id='N_S_124' type='standard_car' route='N_S' depart='289.0' departLane='random' departSpeed='10' />
    <vehicle id='S_N_125' type='standard_car' route='S_N' depart='291.0' departLane='random' departSpeed='10' />
    <vehicle id='S_N_126' type='standard_car' route='S_N' depart='291.0' departLane='random' departSpeed='10' />
    <vehicle id='W_S_127' type='standard_car' route='W_S' depart='291.0' departLane='random' departSpeed='10' />
    <vehicle id='W_E_128' type='standard_car' route='W_E' depart='292.0' departLane='random' departSpeed='10' />
    <vehicle id='N_S_129' type='standard_car' route='N_S' depart='295.0' departLane='random' departSpeed='10' />
    <vehicle id='W_S_130' type='standard_car' route='W_S' depart='296.0' departLane='random' departSpeed='10' />
    <vehicle id='W_E_131' type='standard_car' route='W_E' depart='298.0' departLane='random' departSpeed='10' />
    <vehicle id='S_N_132' type='standard_car' route='S_N' depart='299.0' departLane='random' departSpeed='10' />
    <vehicle id='S_N_133' type='standard_car' route='S_N' depart='300.0' departLane='random' departSpeed='10' />
    <vehicle id='S_E_134' type='standard_car' route='S_E' depart='301.0' departLane='random' departSpeed='10' />
    <vehicle id='N_W_135' type='standard_car' route='N_W' depart='301.0' departLane='random' departSpeed='10' />
    <vehicle id='E_W_136' type='standard_car' route='E_W' depart='302.0' departLane='random' departSpeed='10' />
    <vehicle id='S_E_137' type='standard_car' route='S_E' depart='303.0' departLane='random' departSpeed='10' />
    <vehicle id='E_W_138' type='standard_car' route='E_W' depart='303.0' departLane='random' departSpeed='10' />
    <vehicle id='W_E_139' type='standard_car' route='W_E' depart='305.0' departLane='random' departSpeed='10' />
    <vehicle id='W_E_140' type='standard_car' route='W_E' depart='305.0' departLane='random' departSpeed='10' />
    <vehicle id='S_N_141' type='standard_car' route='S_N' depart='306.0' departLane='random' departSpeed='10' />
    <vehicle id='E_W_142' type='standard_car' route='E_W' depart='307.0' departLane='random' departSpeed='10' />
    <vehicle id='N_S_143' type='standard_car' route='N_S' depart='308.0' departLane='random' departSpeed='10' />
    <vehicle id='S_E_144' type='standard_car' route='S_E' depart='309.0' departLane='random' departSpeed='10' />
    <vehicle id='N_W_145' type='standard_car' route='N_W' depart='311.0' departLane='random' departSpeed='10' />
    <vehicle id='N_S_146' type='standard_car' route='N_S' depart='311.0' departLane='random' departSpeed='10' />
    <vehicle id='W_E_147' type='standard_car' route='W_E' depart='312.0' departLane='random' departSpeed='10' />
    <vehicle id='E_W_148' type='standard_car' route='E_W' depart='313.0' departLane='random' departSpeed='10' />
    <vehicle id='E_W_149' type='standard_car' route='E_W' depart='313.0' departLane='random' departSpeed='10' />
    <vehicle id='S_E_150' type='standard_car' route='S_E' depart='314.0' departLane='random' departSpeed='10' />
    <vehicle id='N_S_151' type='standard_car' route='N_S' depart='315.0' departLane='random' departSpeed='10' />
    <vehicle id='N_S_152' type='standard_car' route='N_S' depart='315.0' departLane='random' departSpeed='10' />
    <vehicle id='W_S_153' type='standard_car' route='W_S' depart='317.0' departLane='random' departSpeed='10' />
    <vehicle id='S_E_154' type='standard_car' route='S_E' depart='318.0' departLane='random' departSpeed='10' />
    <vehicle id='W_E_155' type='standard_car' route='W_E' depart='323.0' departLane='random' departSpeed='10' />
    <vehicle id='W_S_156' type='standard_car' route='W_S' depart='324.0' departLane='random' departSpeed='10' />
    <vehicle id='N_S_157' type='standard_car' route='N_S' depart='326.0' departLane='random' departSpeed='10' />
    <vehicle id='W_E_158' type='standard_car' route='W_E' depart='326.0' departLane='random' departSpeed='10' />
    <vehicle id='N_S_159' type='standard_car' route='N_S' depart='330.0' departLane='random' departSpeed='10' />
    <vehicle id='E_N_160' type='standard_car' route='E_N' depart='332.0' departLane='random' departSpeed='10' />
    <vehicle id='N_S_161' type='standard_car' route='N_S' depart='332.0' departLane='random' departSpeed='10' />
    <vehicle id='N_W_162' type='standard_car' route='N_W' depart='332.0' departLane='random' departSpeed='10' />
    <vehicle id='N_S_163' type='standard_car' route='N_S' depart='333.0' departLane='random' departSpeed='10' />
    <vehicle id='E_W_164' type='standard_car' route='E_W' depart='334.0' departLane='random' departSpeed='10' />
    <vehicle id='W_S_165' type='standard_car' route='W_S' depart='335.0' departLane='random' departSpeed='10' />
    <vehicle id='S_N_166' type='standard_car' route='S_N' depart='338.0' departLane='random' departSpeed='10' />
    <vehicle id='W_S_167' type='standard_car' route='W_S' depart='338.0' departLane='random' departSpeed='10' />
    <vehicle id='N_S_168' type='standard_car' route='N_S' depart='338.0' departLane='random' departSpeed='10' />
    <vehicle id='W_S_169' type='standard_car' route='W_S' depart='338.0' departLane='random' departSpeed='10' />
    <vehicle id='N_W_170' type='standard_car' route='N_W' depart='339.0' departLane='random' departSpeed='10' />
    <vehicle id='W_E_171' type='standard_car' route='W_E' depart='339.0' departLane='random' departSpeed='10' />
    <vehicle id='S_E_172' type='standard_car' route='S_E' depart='340.0' departLane='random' departSpeed='10' />
    <vehicle id='E_W_173' type='standard_car' route='E_W' depart='341.0' departLane='random' departSpeed='10' />
    <vehicle id='E_W_174' type='standard_car' route='E_W' depart='344.0' departLane='random' departSpeed='10' />
    <vehicle id='W_E_175' type='standard_car' route='W_E' depart='345.0' departLane='random' departSpeed='10' />
    <vehicle id='E_N_176' type='standard_car' route='E_N' depart='345.0' departLane='random' departSpeed='10' />
    <vehicle id='W_E_177' type='standard_car' route='W_E' depart='347.0' departLane='random' departSpeed='10' />
    <vehicle id='S_N_178' type='standard_car' route='S_N' depart='347.0' departLane='random' departSpeed='10' />
    <vehicle id='S_E_179' type='standard_car' route='S_E' depart='347.0' departLane='random' departSpeed='10' />
    <vehicle id='E_N_180' type='standard_car' route='E_N' depart='348.0' departLane='random' departSpeed='10' />
    <vehicle id='W_E_181' type='standard_car' route='W_E' depart='349.0' departLane='random' departSpeed='10' />
    <vehicle id='E_N_182' type='standard_car' route='E_N' depart='349.0' departLane='random' departSpeed='10' />
    <vehicle id='W_S_183' type='standard_car' route='W_S' depart='350.0' departLane='random' departSpeed='10' />
    <vehicle id='N_S_184' type='standard_car' route='N_S' depart='350.0' departLane='random' departSpeed='10' />
    <vehicle id='N_S_185' type='standard_car' route='N_S' depart='351.0' departLane='random' departSpeed='10' />
    <vehicle id='W_E_186' type='standard_car' route='W_E' depart='353.0' departLane='random' departSpeed='10' />
    <vehicle id='N_S_187' type='standard_car' route='N_S' depart='353.0' departLane='random' departSpeed='10' />
    <vehicle id='N_S_188' type='standard_car' route='N_S' depart='354.0' departLane='random' departSpeed='10' />
    <vehicle id='N_W_189' type='standard_car' route='N_W' depart='355.0' departLane='random' departSpeed='10' />
    <vehicle id='W_E_190' type='standard_car' route='W_E' depart='356.0' departLane='random' departSpeed='10' />
    <vehicle id='N_S_191' type='standard_car' route='N_S' depart='356.0' departLane='random' departSpeed='10' />
    <vehicle id='S_E_192' type='standard_car' route='S_E' depart='357.0' departLane='random' departSpeed='10' />
    <vehicle id='N_S_193' type='standard_car' route='N_S' depart='358.0' departLane='random' departSpeed='10' />
    <vehicle id='W_S_194' type='standard_car' route='W_S' depart='358.0' departLane='random' departSpeed='10' />
    <vehicle id='N_W_195' type='standard_car' route='N_W' depart='360.0' departLane='random' departSpeed='10' />
    <vehicle id='N_S_196' type='standard_car' route='N_S' depart='361.0' departLane='random' departSpeed='10' />
    <vehicle id='N_W_197' type='standard_car' route='N_W' depart='361.0' departLane='random' departSpeed='10' />
    <vehicle id='S_E_198' type='standard_car' route='S_E' depart='364.0' departLane='random' departSpeed='10' />
    <vehicle id='E_W_199' type='standard_car' route='E_W' depart='364.0' departLane='random' departSpeed='10' />
    <vehicle id='W_E_200' type='standard_car' route='W_E' depart='367.0' departLane='random' departSpeed='10' />
    <vehicle id='N_W_201' type='standard_car' route='N_W' depart='367.0' departLane='random' departSpeed='10' />
    <vehicle id='E_N_202' type='standard_car' route='E_N' depart='368.0' departLane='random' departSpeed='10' />
    <vehicle id='W_E_203' type='standard_car' route='W_E' depart='369.0' departLane='random' departSpeed='10' />
    <vehicle id='E_N_204' type='standard_car' route='E_N' depart='370.0' departLane='random' departSpeed='10' />
    <vehicle id='W_S_205' type='standard_car' route='W_S' depart='372.0' departLane='random' departSpeed='10' />
    <vehicle id='E_W_206' type='standard_car' route='E_W' depart='373.0' departLane='random' departSpeed='10' />
    <vehicle id='N_W_207' type='standard_car' route='N_W' depart='375.0' departLane='random' departSpeed='10' />
    <vehicle id='N_S_208' type='standard_car' route='N_S' depart='376.0' departLane='random' departSpeed='10' />
    <vehicle id='E_N_209' type='standard_car' route='E_N' depart='377.0' departLane='random' departSpeed='10' />
    <vehicle id='E_N_210' type='standard_car' route='E_N' depart='381.0' departLane='random' departSpeed='10' />
    <vehicle id='W_E_211' type='standard_car' route='W_E' depart='381.0' departLane='random' departSpeed='10' />
    <vehicle id='W_S_212' type='standard_car' route='W_S' depart='381.0' departLane='random' departSpeed='10' />
    <vehicle id='W_S_213' type='standard_car' route='W_S' depart='385.0' departLane='random' departSpeed='10' />
    <vehicle id='N_S_214' type='standard_car' route='N_S' depart='385.0' departLane='random' departSpeed='10' />
    <vehicle id='N_S_215' type='standard_car' route='N_S' depart='386.0' departLane='random' departSpeed='10' />
    <vehicle id='S_N_216' type='standard_car' route='S_N' depart='386.0' departLane='random' departSpeed='10' />
    <vehicle id='E_W_217' type='standard_car' route='E_W' depart='387.0' departLane='random' departSpeed='10' />
    <vehicle id='S_E_218' type='standard_car' route='S_E' depart='387.0' departLane='random' departSpeed='10' />
    <vehicle id='E_W_219' type='standard_car' route='E_W' depart='389.0' departLane='random' departSpeed='10' />
    <vehicle id='W_E_220' type='standard_car' route='W_E' depart='389.0' departLane='random' departSpeed='10' />
    <vehicle id='E_W_221' type='standard_car' route='E_W' depart='389.0' departLane='random' departSpeed='10' />
    <vehicle id='W_E_222' type='standard_car' route='W_E' depart='390.0' departLane='random' departSpeed='10' />
    <vehicle id='S_E_223' type='standard_car' route='S_E' depart='390.0' departLane='random' departSpeed='10' />
    <vehicle id='N_W_224' type='standard_car' route='N_W' depart='391.0' departLane='random' departSpeed='10' />
    <vehicle id='E_N_225' type='standard_car' route='E_N' depart='392.0' departLane='random' departSpeed='10' />
    <vehicle id='E_N_226' type='standard_car' route='E_N' depart='392.0' departLane='random' departSpeed='10' />
    <vehicle id='S_N_227' type='standard_car' route='S_N' depart='392.0' departLane='random' departSpeed='10' />
    <vehicle id='S_N_228' type='standard_car' route='S_N' depart='393.0' departLane='random' departSpeed='10' />
    <vehicle id='N_W_229' type='standard_car' route='N_W' depart='393.0' departLane='random' departSpeed='10' />
    <vehicle id='S_N_230' type='standard_car' route='S_N' depart='396.0' departLane='random' departSpeed='10' />
    <vehicle id='E_W_231' type='standard_car' route='E_W' depart='396.0' departLane='random' departSpeed='10' />
    <vehicle id='N_S_232' type='standard_car' route='N_S' depart='396.0' departLane='random' departSpeed='10' />
    <vehicle id='E_N_233' type='standard_car' route='E_N' depart='397.0' departLane='random' departSpeed='10' />
    <vehicle id='W_E_234' type='standard_car' route='W_E' depart='398.0' departLane='random' departSpeed='10' />
    <vehicle id='S_E_235' type='standard_car' route='S_E' depart='398.0' departLane='random' departSpeed='10' />
    <vehicle id='S_E_236' type='standard_car' route='S_E' depart='400.0' departLane='random' departSpeed='10' />
    <vehicle id='N_W_237' type='standard_car' route='N_W' depart='400.0' departLane='random' departSpeed='10' />
    <vehicle id='E_N_238' type='standard_car' route='E_N' depart='400.0' departLane='random' departSpeed='10' />
    <vehicle id='N_S_239' type='standard_car' route='N_S' depart='402.0' departLane='random' departSpeed='10' />
    <vehicle id='W_E_240' type='standard_car' route='W_E' depart='402.0' departLane='random' departSpeed='10' />
    <vehicle id='N_W_241' type='standard_car' route='N_W' depart='403.0' departLane='random' departSpeed='10' />
    <vehicle id='N_S_242' type='standard_car' route='N_S' depart='403.0' departLane='random' departSpeed='10' />
    <vehicle id='E_W_243' type='standard_car' route='E_W' depart='403.0' departLane='random' departSpeed='10' />
    <vehicle id='S_N_244' type='standard_car' route='S_N' depart='403.0' departLane='random' departSpeed='10' />
    <vehicle id='N_S_245' type='standard_car' route='N_S' depart='403.0' departLane='random' departSpeed='10' />
    <vehicle id='S_N_246' type='standard_car' route='S_N' depart='404.0' departLane='random' departSpeed='10' />
    <vehicle id='E_W_247' type='standard_car' route='E_W' depart='404.0' departLane='random' departSpeed='10' />
    <vehicle id='S_N_248' type='standard_car' route='S_N' depart='405.0' departLane='random' departSpeed='10' />
    <vehicle id='E_W_249' type='standard_car' route='E_W' depart='406.0' departLane='random' departSpeed='10' />
    <vehicle id='S_E_250' type='standard_car' route='S_E' depart='406.0' departLane='random' departSpeed='10' />
    <vehicle id='W_E_251' type='standard_car' route='W_E' depart='407.0' departLane='random' departSpeed='10' />
    <vehicle id='W_S_252' type='standard_car' route='W_S' depart='407.0' departLane='random' departSpeed='10' />
    <vehicle id='E_N_253' type='standard_car' route='E_N' depart='408.0' departLane='random' departSpeed='10' />
    <vehicle id='S_E_254' type='standard_car' route='S_E' depart='409.0' departLane='random' departSpeed='10' />
    <vehicle id='N_W_255' type='standard_car' route='N_W' depart='411.0' departLane='random' departSpeed='10' />
    <vehicle id='W_E_256' type='standard_car' route='W_E' depart='412.0' departLane='random' departSpeed='10' />
    <vehicle id='S_N_257' type='standard_car' route='S_N' depart='412.0' departLane='random' departSpeed='10' />
    <vehicle id='S_N_258' type='standard_car' route='S_N' depart='414.0' departLane='random' departSpeed='10' />
    <vehicle id='N_S_259' type='standard_car' route='N_S' depart='415.0' departLane='random' departSpeed='10' />