<routes>
    <vType id="standard_car" length="5.0" maxSpeed="15" minGap="2.5" accel="2.0" decel="4.5" />
    <route id="N_S" edges="road_1_2_3 road_1_1_3"/>
    <route id="N_E" edges="road_1_2_3 road_1_1_0"/>
    <route id="N_W" edges="road_1_2_3 road_1_1_2"/>
    <route id="S_W" edges="road_1_0_1 road_1_1_2"/>
    <route id="S_E" edges="road_1_0_1 road_1_1_0"/>
    <route id="S_N" edges="road_1_0_1 road_1_1_1"/>

    <route id="W_E" edges="road_0_1_0 road_1_1_0"/>
    <route id="W_N" edges="road_0_1_0 road_1_1_1"/>
    <route id="W_S" edges="road_0_1_0 road_1_1_3"/>
    <route id="E_N" edges="road_2_1_2 road_1_1_1"/>
    <route id="E_S" edges="road_2_1_2 road_1_1_3"/>
    <route id="E_W" edges="road_2_1_2 road_1_1_2"/>
            
    <vehicle id='N_S_0' type='standard_car' route='N_S' depart='21.0' departLane='random' departSpeed='10' />
    <vehicle id='S_N_1' type='standard_car' route='S_N' depart='25.0' departLane='random' departSpeed='10' />
    <vehicle id='N_S_2' type='standard_car' route='N_S' depart='45.0' departLane='random' departSpeed='10' />
    <vehicle id='S_N_3' type='standard_car' route='S_N' depart='49.0' departLane='random' departSpeed='10' />
    <vehicle id='S_N_4' type='standard_car' route='S_N' depart='64.0' departLane='random' departSpeed='10' />
    <vehicle id='E_W_5' type='standard_car' route='E_W' depart='70.0' departLane='random' departSpeed='10' />
    <vehicle id='E_W_6' type='standard_car' route='E_W' depart='72.0' departLane='random' departSpeed='10' />
    <vehicle id='W_S_7' type='standard_car' route='W_S' depart='73.0' departLane='random' departSpeed='10' />
    <vehicle id='E_N_8' type='standard_car' route='E_N' depart='75.0' departLane='random' departSpeed='10' />
    <vehicle id='E_W_9' type='standard_car' route='E_W' depart='82.0' departLane='random' departSpeed='10' />
    <vehicle id='S_N_10' type='standard_car' route='S_N' depart='87.0' departLane='random' departSpeed='10' />
    <vehicle id='W_S_11' type='standard_car' route='W_S' depart='87.0' departLane='random' departSpeed='10' />
    <vehicle id='S_E_12' type='standard_car' route='S_E' depart='91.0' departLane='random' departSpeed='10' />
    <vehicle id='S_N_13' type='standard_car' route='S_N' depart='94.0' departLane='random' departSpeed='10' />
    <vehicle id='N_W_14' type='standard_car' route='N_W' depart='97.0' departLane='random' departSpeed='10' />
    <vehicle id='N_W_15' type='standard_car' route='N_W' depart='101.0' departLane='random' departSpeed='10' />
    <vehicle id='W_S_16' type='standard_car' route='W_S' depart='104.0' departLane='random' departSpeed='10' />
    <vehicle id='E_W_17' type='standard_car' route='E_W' depart='106.0' departLane='random' departSpeed='10' />
    <vehicle id='N_W_18' type='standard_car' route='N_W' depart='110.0' departLane='random' departSpeed='10' />
    <vehicle id='W_S_19' type='standard_car' route='W_S' depart='114.0' departLane='random' departSpeed='10' />
    <vehicle id='S_E_20' type='standard_car' route='S_E' depart='119.0' departLane='random' departSpeed='10' />
    <vehicle id='N_S_21' type='standard_car' route='N_S' depart='121.0' departLane='random' departSpeed='10' />
    <vehicle id='S_E_22' type='standard_car' route='S_E' depart='123.0' departLane='random' departSpeed='10' />
    <vehicle id='W_E_23' type='standard_car' route='W_E' depart='128.0' departLane='random' departSpeed='10' />
    <vehicle id='N_W_24' type='standard_car' route='N_W' depart='131.0' departLane='random' departSpeed='10' />
    <vehicle id='E_W_25' type='standard_car' route='E_W' depart='133.0' departLane='random' departSpeed='10' />
    <vehicle id='S_N_26' type='standard_car' route='S_N' depart='136.0' departLane='random' departSpeed='10' />
    <vehicle id='W_S_27' type='standard_car' route='W_S' depart='136.0' departLane='random' departSpeed='10' />
    <vehicle id='W_E_28' type='standard_car' route='W_E' depart='137.0' departLane='random' departSpeed='10' />
    <vehicle id='N_W_29' type='standard_car' route='N_W' depart='140.0' departLane='random' departSpeed='10' />
    <vehicle id='E_W_30' type='standard_car' route='E_W' depart='149.0' departLane='random' departSpeed='10' />
    <vehicle id='S_E_31' type='standard_car' route='S_E' depart='150.0' departLane='random' departSpeed='10' />
    <vehicle id='N_W_32' type='standard_car' route='N_W' depart='155.0' departLane='random' departSpeed='10' />
    <vehicle id='W_S_33' type='standard_car' route='W_S' depart='160.0' departLane='random' departSpeed='10' />
    <vehicle id='W_E_34' type='standard_car' route='W_E' depart='161.0' departLane='random' departSpeed='10' />
    <vehicle id='E_N_35' type='standard_car' route='E_N' depart='170.0' departLane='random' departSpeed='10' />
    <vehicle id='W_E_36' type='standard_car' route='W_E' depart='170.0' departLane='random' departSpeed='10' />
    <vehicle id='E_W_37' type='standard_car' route='E_W' depart='171.0' departLane='random' departSpeed='10' />
    <vehicle id='S_N_38' type='standard_car' route='S_N' depart='174.0' departLane='random' departSpeed='10' />
    <vehicle id='S_E_39' type='standard_car' route='S_E' depart='176.0' departLane='random' departSpeed='10' />
    <vehicle id='W_E_40' type='standard_car' route='W_E' depart='177.0' departLane='random' departSpeed='10' />
    <vehicle id='W_E_41' type='standard_car' route='W_E' depart='177.0' departLane='random' departSpeed='10' />
    <vehicle id='S_E_42' type='standard_car' route='S_E' depart='177.0' departLane='random' departSpeed='10' />
    <vehicle id='E_W_43' type='standard_car' route='E_W' depart='177.0' departLane='random' departSpeed='10' />
    <vehicle id='S_E_44' type='standard_car' route='S_E' depart='186.0' departLane='random' departSpeed='10' />
    <vehicle id='S_N_45' type='standard_car' route='S_N' depart='192.0' departLane='random' departSpeed='10' />
    <vehicle id='W_E_46' type='standard_car' route='W_E' depart='194.0' departLane='random' departSpeed='10' />
    <vehicle id='W_S_47' type='standard_car' route='W_S' depart='198.0' departLane='random' departSpeed='10' />
    <vehicle id='E_W_48' type='standard_car' route='E_W' depart='203.0' departLane='random' departSpeed='10' />
    <vehicle id='W_S_49' type='standard_car' route='W_S' depart='203.0' departLane='random' departSpeed='10' />
    <vehicle id='N_W_50' type='standard_car' route='N_W' depart='206.0' departLane='random' departSpeed='10' />
    <vehicle id='N_S_51' type='standard_car' route='N_S' depart='207.0' departLane='random' departSpeed='10' />
    <vehicle id='W_E_52' type='standard_car' route='W_E' depart='208.0' departLane='random' departSpeed='10' />
    <vehicle id='W_E_53' type='standard_car' route='W_E' depart='209.0' departLane='random' departSpeed='10' />
    <vehicle id='N_S_54' type='standard_car' route='N_S' depart='209.0' departLane='random' departSpeed='10' />
    <vehicle id='N_S_55' type='standard_car' route='N_S' depart='211.0' departLane='random' departSpeed='10' />
    <vehicle id='S_E_56' type='standard_car' route='S_E' depart='213.0' departLane='random' departSpeed='10' />
    <vehicle id='N_W_57' type='standard_car' route='N_W' depart='213.0' departLane='random' departSpeed='10' />
    <vehicle id='S_N_58' type='standard_car' route='S_N' depart='214.0' departLane='random' departSpeed='10' />
    <vehicle id='E_W_59' type='standard_car' route='E_W' depart='215.0' departLane='random' departSpeed='10' />
    <vehicle id='E_W_60' type='standard_car' route='E_W' depart='218.0' departLane='random' departSpeed='10' />
    <vehicle id='W_E_61' type='standard_car' route='W_E' depart='218.0' departLane='random' departSpeed='10' />
    <vehicle id='S_E_62' type='standard_car' route='S_E' depart='218.0' departLane='random' departSpeed='10' />
    <vehicle id='E_W_63' type='standard_car' route='E_W' depart='220.0' departLane='random' departSpeed='10' />
    <vehicle id='N_S_64' type='standard_car' route='N_S' depart='221.0' departLane='random' departSpeed='10' />
    <vehicle id='W_E_65' type='standard_car' route='W_E' depart='222.0' departLane='random' departSpeed='10' />
    <vehicle id='S_N_66' type='standard_car' route='S_N' depart='223.0' departLane='random' departSpeed='10' />
    <vehicle id='S_E_67' type='standard_car' route='S_E' depart='224.0' departLane='random' departSpeed='10' />
    <vehicle id='W_S_68' type='standard_car' route='W_S' depart='228.0' departLane='random' departSpeed='10' />
    <vehicle id='W_S_69' type='standard_car' route='W_S' depart='229.0' departLane='random' departSpeed='10' />
    <vehicle id='S_N_70' type='standard_car' route='S_N' depart='232.0' departLane='random' departSpeed='10' />
    <vehicle id='W_E_71' type='standard_car' route='W_E' depart='235.0' departLane='random' departSpeed='10' />
    <vehicle id='E_W_72' type='standard_car' route='E_W' depart='235.0' departLane='random' departSpeed='10' />
    <vehicle id='E_N_73' type='standard_car' route='E_N' depart='237.0' departLane='random' departSpeed='10' />
    <vehicle id='E_W_74' type='standard_car' route='E_W' depart='245.0' departLane='random' departSpeed='10' />
    <vehicle id='N_S_75' type='standard_car' route='N_S' depart='248.0' departLane='random' departSpeed='10' />
    <vehicle id='W_E_76' type='standard_car' route='W_E' depart='248.0' departLane='random' departSpeed='10' />
    <vehicle id='S_E_77' type='standard_car' route='S_E' depart='249.0' departLane='random' departSpeed='10' />
    <vehicle id='N_W_78' type='standard_car' route='N_W' depart='249.0' departLane='random' departSpeed='10' />
    <vehicle id='S_N_79' type='standard_car' route='S_N' depart='249.0' departLane='random' departSpeed='10' />
    <vehicle id='N_S_80' type='standard_car' route='N_S' depart='254.0' departLane='random' departSpeed='10' />
    <vehicle id='N_S_81' type='standard_car' route='N_S' depart='255.0' departLane='random' departSpeed='10' />
    <vehicle id='W_E_82' type='standard_car' route='W_E' depart='255.0' departLane='random' departSpeed='10' />
    <vehicle id='E_N_83' type='standard_car' route='E_N' depart='258.0' departLane='random' departSpeed='10' />
    <vehicle id='N_S_84' type='standard_car' route='N_S' depart='259.0' departLane='random' departSpeed='10' />
    <vehicle id='S_N_85' type='standard_car' route='S_N' depart='259.0' departLane='random' departSpeed='10' />
    <vehicle id='S_E_86' type='standard_car' route='S_E' depart='259.0' departLane='random' departSpeed='10' />
    <vehicle id='E_W_87' type='standard_car' route='E_W' depart='264.0' departLane='random' departSpeed='10' />
    <vehicle id='W_E_88' type='standard_car' route='W_E' depart='266.0' departLane='random' departSpeed='10' />
    <vehicle id='E_W_89' type='standard_car' route='E_W' depart='266.0' departLane='random' departSpeed='10' />
    <vehicle id='N_S_90' type='standard_car' route='N_S' depart='267.0' departLane='random' departSpeed='10' />
    <vehicle id='E_N_91' type='standard_car' route='E_N' depart='269.0' departLane='random' departSpeed='10' />
    <vehicle id='W_S_92' type='standard_car' route='W_S' depart='270.0' departLane='random' departSpeed='10' />
    <vehicle id='W_S_93' type='standard_car' route='W_S' depart='270.0' departLane='random' departSpeed='10' />
    <vehicle id='S_N_94' type='standard_car' route='S_N' depart='270.0' departLane='random' departSpeed='10' />
    <vehicle id='N_S_95' type='standard_car' route='N_S' depart='271.0' departLane='random' departSpeed='10' />
    <vehicle id='N_S_96' type='standard_car' route='N_S' depart='271.0' departLane='random' departSpeed='10' />
    <vehicle id='E_W_97' type='standard_car' route='E_W' depart='273.0' departLane='random' departSpeed='10' />
    <vehicle id='N_S_98' type='standard_car' route='N_S' depart='275.0' departLane='random' departSpeed='10' />
    <vehicle id='W_E_99' type='standard_car' route='W_E' depart='275.0' departLane='random' departSpeed='10' />
    <vehicle id='E_W_100' type='standard_car' route='E_W' depart='275.0' departLane='random' departSpeed='10' />
    <vehicle id='W_E_101' type='standard_car' route='W_E' depart='276.0' departLane='random' departSpeed='10' />
    <vehicle id='W_E_102' type='standard_car' route='W_E' depart='279.0' departLane='random' departSpeed='10' />
    <vehicle id='N_W_103' type='standard_car' route='N_W' depart='281.0' departLane='random' departSpeed='10' />
    <vehicle id='E_N_104' type='standard_car' route='E_N' depart='283.0' departLane='random' departSpeed='10' />
    <vehicle id='W_E_105' type='standard_car' route='W_E' depart='284.0' departLane='random' departSpeed='10' />
    <vehicle id='S_N_106' type='standard_car' route='S_N' depart='284.0' departLane='random' departSpeed='10' />
    <vehicle id='W_E_107' type='standard_car' route='W_E' depart='286.0' departLane='random' departSpeed='10' />
    <vehicle id='N_S_108' type='standard_car' route='N_S' depart='286.0' departLane='random' departSpeed='10' />
    <vehicle id='W_S_109' type='standard_car' route='W_S' depart='287.0' departLane='random' departSpeed='10' />
    <vehicle id='W_E_110' type='standard_car' route='W_E' depart='288.0' departLane='random' departSpeed='10' />
    <vehicle id='S_E_111' type='standard_car' route='S_E' depart='288.0' departLane='random' departSpeed='10' />
    <vehicle id='N_W_112' type='standard_car' route='N_W' depart='290.0' departLane='random' departSpeed='10' />
    <vehicle id='W_S_113' type='standard_car' route='W_S' depart='292.0' departLane='random' departSpeed='10' />
    <vehicle id='W_E_114' type='standard_car' route='W_E' depart='292.0' departLane='random' departSpeed='10' />
    <vehicle id='W_E_115' type='standard_car' route='W_E' depart='293.0' departLane='random' departSpeed='10' />
    <vehicle id='E_W_116' type='standard_car' route='E_W' depart='294.0' departLane='random' departSpeed='10' />
    <vehicle id='S_N_117' type='standard_car' route='S_N' depart='295.0' departLane='random' departSpeed='10' />
    <vehicle id='N_S_118' type='standard_car' route='N_S' depart='300.0' departLane='random' departSpeed='10' />
    <vehicle id='N_S_119' type='standard_car' route='N_S' depart='301.0' departLane='random' departSpeed='10' />
    <vehicle id='S_N_120' type='standard_car' route='S_N' depart='304.0' departLane='random' departSpeed='10' />
    <vehicle id='N_W_121' type='standard_car' route='N_W' depart='304.0' departLane='random' departSpeed='10' />
    <vehicle id='E_W_122' type='standard_car' route='E_W' depart='306.0' departLane='random' departSpeed='10' />
    <vehicle id='S_N_123' type='standard_car' route='S_N' depart='306.0' departLane='random' departSpeed='10' />
    <vehicle id='E_W_124' type='standard_car' route='E_W' depart='308.0' departLane='random' departSpeed='10' />
    <vehicle id='W_E_125' type='standard_car' route='W_E' depart='308.0' departLane='random' departSpeed='10' />
    <vehicle id='E_W_126' type='standard_car' route='E_W' depart='308.0' departLane='random' departSpeed='10' />
    <vehicle id='N_W_127' type='standard_car' route='N_W' depart='308.0' departLane='random' departSpeed='10' />
    <vehicle id='W_E_128' type='standard_car' route='W_E' depart='308.0' departLane='random' departSpeed='10' />
    <vehicle id='S_E_129' type='standard_car' route='S_E' depart='310.0' departLane='random' departSpeed='10' />
    <vehicle id='N_S_130' type='standard_car' route='N_S' depart='310.0' departLane='random' departSpeed='10' />
    <vehicle id='W_S_131' type='standard_car' route='W_S' depart='310.0' departLane='random' departSpeed='10' />
    <vehicle id='S_N_132' type='standard_car' route='S_N' depart='312.0' departLane='random' departSpeed='10' />
    <vehicle id='E_W_133' type='standard_car' route='E_W' depart='312.0' departLane='random' departSpeed='10' />
    <vehicle id='E_N_134' type='standard_car' route='E_N' depart='313.0' departLane='random' departSpeed='10' />
    <vehicle id='N_S_135' type='standard_car' route='N_S' depart='313.0' departLane='random' departSpeed='10' />
    <vehicle id='S_E_136' type='standard_car' route='S_E' depart='316.0' departLane='random' departSpeed='10' />
    <vehicle id='E_N_137' type='standard_car' route='E_N' depart='316.0' departLane='random' departSpeed='10' />
    <vehicle id='W_E_138' type='standard_car' route='W_E' depart='319.0' departLane='random' departSpeed='10' />
    <vehicle id='E_W_139' type='standard_car' route='E_W' depart='320.0' departLane='random' departSpeed='10' />
    <vehicle id='N_W_140' type='standard_car' route='N_W' depart='322.0' departLane='random' departSpeed='10' />
    <vehicle id='W_E_141' type='standard_car' route='W_E' depart='325.0' departLane='random' departSpeed='10' />
    <vehicle id='W_E_142' type='standard_car' route='W_E' depart='326.0' departLane='random' departSpeed='10' />
    <vehicle id='W_E_143' type='standard_car' route='W_E' depart='327.0' departLane='random' departSpeed='10' />
    <vehicle id='E_W_144' type='standard_car' route='E_W' depart='327.0' departLane='random' departSpeed='10' />
    <vehicle id='W_S_145' type='standard_car' route='W_S' depart='328.0' departLane='random' departSpeed='10' />
    <vehicle id='S_E_146' type='standard_car' route='S_E' depart='329.0' departLane='random' departSpeed='10' />
    <vehicle id='E_N_147' type='standard_car' route='E_N' depart='330.0' departLane='random' departSpeed='10' />
    <vehicle id='N_W_148' type='standard_car' route='N_W' depart='331.0' departLane='random' departSpeed='10' />
    <vehicle id='E_N_149' type='standard_car' route='E_N' depart='334.0' departLane='random' departSpeed='10' />
    <vehicle id='E_W_150' type='standard_car' route='E_W' depart='335.0' departLane='random' departSpeed='10' />
    <vehicle id='W_E_151' type='standard_car' route='W_E' depart='337.0' departLane='random' departSpeed='10' />
    <vehicle id='N_W_152' type='standard_car' route='N_W' depart='338.0' departLane='random' departSpeed='10' />
    <vehicle id='S_N_153' type='standard_car' route='S_N' depart='338.0' departLane='random' departSpeed='10' />
    <vehicle id='E_N_154' type='standard_car' route='E_N' depart='338.0' departLane='random' departSpeed='10' />
    <vehicle id='N_S_155' type='standard_car' route='N_S' depart='339.0' departLane='random' departSpeed='10' />
    <vehicle id='E_N_156' type='standard_car' route='E_N' depart='344.0' departLane='random' departSpeed='10' />
    <vehicle id='W_E_157' type='standard_car' route='W_E' depart='344.0' departLane='random' departSpeed='10' />
    <vehicle id='N_W_158' type='standard_car' route='N_W' depart='347.0' departLane='random' departSpeed='10' />
    <vehicle id='N_S_159' type='standard_car' route='N_S' depart='348.0' departLane='random' departSpeed='10' />
    <vehicle id='N_S_160' type='standard_car' route='N_S' depart='349.0' departLane='random' departSpeed='10' />
    <vehicle id='N_W_161' type='standard_car' route='N_W' depart='349.0' departLane='random' departSpeed='10' />
    <vehicle id='W_E_162' type='standard_car' route='W_E' depart='349.0' departLane='random' departSpeed='10' />
    <vehicle id='E_W_163' type='standard_car' route='E_W' depart='349.0' departLane='random' departSpeed='10' />
    <vehicle id='N_S_164' type='standard_car' route='N_S' depart='350.0' departLane='random' departSpeed='10' />
    <vehicle id='W_S_165' type='standard_car' route='W_S' depart='353.0' departLane='random' departSpeed='10' />
    <vehicle id='N_S_166' type='standard_car' route='N_S' depart='354.0' departLane='random' departSpeed='10' />
    <vehicle id='E_W_167' type='standard_car' route='E_W' depart='355.0' departLane='random' departSpeed='10' />
    <vehicle id='S_E_168' type='standard_car' route='S_E' depart='356.0' departLane='random' departSpeed='10' />
    <vehicle id='W_E_169' type='standard_car' route='W_E' depart='357.0' departLane='random' departSpeed='10' />
    <vehicle id='W_E_170' type='standard_car' route='W_E' depart='358.0' departLane='random' departSpeed='10' />
    <vehicle id='W_E_171' type='standard_car' route='W_E' depart='358.0' departLane='random' departSpeed='10' />
    <vehicle id='S_E_172' type='standard_car' route='S_E' depart='358.0' departLane='random' departSpeed='10' />
    <vehicle id='E_N_173' type='standard_car' route='E_N' depart='359.0' departLane='random' departSpeed='10' />
    <vehicle id='N_S_174' type='standard_car' route='N_S' depart='360.0' departLane='random' departSpeed='10' />
    <vehicle id='S_E_175' type='standard_car' route='S_E' depart='361.0' departLane='random' departSpeed='10' />
    <vehicle id='E_W_176' type='standard_car' route='E_W' depart='362.0' departLane='random' departSpeed='10' />
    <vehicle id='E_N_177' type='standard_car' route='E_N' depart='362.0' departLane='random' departSpeed='10' />
    <vehicle id='E_N_178' type='standard_car' route='E_N' depart='362.0' departLane='random' departSpeed='10' />
    <vehicle id='S_E_179' type='standard_car' route='S_E' depart='363.0' departLane='random' departSpeed='10' />
    <vehicle id='E_W_180' type='standard_car' route='E_W' depart='363.0' departLane='random' departSpeed='10' />
    <vehicle id='N_S_181' type='standard_car' route='N_S' depart='365.0' departLane='random' departSpeed='10' />
    <vehicle id='W_E_182' type='standard_car' route='W_E' depart='365.0' departLane='random' departSpeed='10' />
    <vehicle id='S_N_183' type='standard_car' route='S_N' depart='365.0' departLane='random' departSpeed='10' />
    <vehicle id='W_E_184' type='standard_car' route='W_E' depart='365.0' departLane='random' departSpeed='10' />
    <vehicle id='E_N_185' type='standard_car' route='E_N' depart='367.0' departLane='random' departSpeed='10' />
    <vehicle id='S_N_186' type='standard_car' route='S_N' depart='367.0' departLane='random' departSpeed='10' />
    <vehicle id='E_N_187' type='standard_car' route='E_N' depart='370.0' departLane='random' departSpeed='10' />
    <vehicle id='N_S_188' type='standard_car' route='N_S' depart='370.0' departLane='random' departSpeed='10' />
    <vehicle id='S_E_189' type='standard_car' route='S_E' depart='371.0' departLane='random' departSpeed='10' />
    <vehicle id='S_N_190' type='standard_car' route='S_N' depart='372.0' departLane='random' departSpeed='10' />
    <vehicle id='E_W_191' type='standard_car' route='E_W' depart='373.0' departLane='random' departSpeed='10' />
    <vehicle id='E_N_192' type='standard_car' route='E_N' depart='377.0' departLane='random' departSpeed='10' />
    <vehicle id='E_W_193' type='standard_car' route='E_W' depart='380.0' departLane='random' departSpeed='10' />
    <vehicle id='W_E_194' type='standard_car' route='W_E' depart='380.0' departLane='random' departSpeed='10' />
    <vehicle id='W_E_195' type='standard_car' route='W_E' depart='382.0' departLane='random' departSpeed='10' />
    <vehicle id='N_S_196' type='standard_car' route='N_S' depart='382.0' departLane='random' departSpeed='10' />
    <vehicle id='S_N_197' type='standard_car' route='S_N' depart='384.0' departLane='random' departSpeed='10' />
    <vehicle id='N_S_198' type='standard_car' route='N_S' depart='386.0' departLane='random' departSpeed='10' />
    <vehicle id='S_N_199' type='standard_car' route='S_N' depart='386.0' departLane='random' departSpeed='10' />
    <vehicle id='N_S_200' type='standard_car' route='N_S' depart='386.0' departLane='random' departSpeed='10' />
    <vehicle id='N_S_201' type='standard_car' route='N_S' depart='386.0' departLane='random' departSpeed='10' />
    <vehicle id='S_E_202' type='standard_car' route='S_E' depart='387.0' departLane='random' departSpeed='10' />
    <vehicle id='E_N_203' type='standard_car' route='E_N' depart='387.0' departLane='random' departSpeed='10' />
    <vehicle id='E_W_204' type='standard_car' route='E_W' depart='391.0' departLane='random' departSpeed='10' />
    <vehicle id='N_S_205' type='standard_car' route='N_S' depart='392.0' departLane='random' departSpeed='10' />
    <vehicle id='E_N_206' type='standard_car' route='E_N' depart='394.0' departLane='random' departSpeed='10' />
    <vehicle id='W_E_207' type='standard_car' route='W_E' depart='395.0' departLane='random' departSpeed='10' />
    <vehicle id='N_S_208' type='standard_car' route='N_S' depart='397.0' departLane='random' departSpeed='10' />
    <vehicle id='E_N_209' type='standard_car' route='E_N' depart='397.0' departLane='random' departSpeed='10' />
    <vehicle id='N_W_210' type='standard_car' route='N_W' depart='397.0' departLane='random' departSpeed='10' />
    <vehicle id='S_N_211' type='standard_car' route='S_N' depart='398.0' departLane='random' departSpeed='10' />
    <vehicle id='S_N_212' type='standard_car' route='S_N' depart='398.0' departLane='random' departSpeed='10' />
    <vehicle id='N_W_213' type='standard_car' route='N_W' depart='399.0' departLane='random' departSpeed='10' />
    <vehicle id='E_W_214' type='standard_car' route='E_W' depart='399.0' departLane='random' departSpeed='10' />
    <vehicle id='W_S_215' type='standard_car' route='W_S' depart='399.0' departLane='random' departSpeed='10' />
    <vehicle id='S_N_216' type='standard_car' route='S_N' depart='400.0' departLane='random' departSpeed='10' />
    <vehicle id='S_N_217' type='standard_car' route='S_N' depart='400.0' departLane='random' departSpeed='10' />
    <vehicle id='S_E_218' type='standard_car' route='S_E' depart='401.0' departLane='random' departSpeed='10' />
    <vehicle id='S_N_219' type='standard_car' route='S_N' depart='401.0' departLane='random' departSpeed='10' />
    <vehicle id='W_E_220' type='standard_car' route='W_E' depart='403.0' departLane='random' departSpeed='10' />
    <vehicle id='E_W_221' type='standard_car' route='E_W' depart='403.0' departLane='random' departSpeed='10' />
    <vehicle id='E_W_222' type='standard_car' route='E_W' depart='404.0' departLane='random' departSpeed='10' />
    <vehicle id='N_S_223' type='standard_car' route='N_S' depart='405.0' departLane='random' departSpeed='10' />
    <vehicle id='N_W_224' type='standard_car' route='N_W' depart='408.0' departLane='random' departSpeed='10' />
    <vehicle id='W_S_225' type='standard_car' route='W_S' depart='408.0' departLane='random' departSpeed='10' />
    <vehicle id='N_S_226' type='standard_car' route='N_S' depart='409.0' departLane='random' departSpeed='10' />
    <vehicle id='W_S_227' type='standard_car' route='W_S' depart='410.0' departLane='random' departSpeed='10' />
    <vehicle id='S_N_228' type='standard_car' route='S_N' depart='411.0' departLane='random' departSpeed='10' />
    <vehicle id='E_N_229' type='standard_car' route='E_N' depart='411.0' departLane='random' departSpeed='10' />
    <vehicle id='W_E_230' type='standard_car' route='W_E' depart='412.0' departLane='random' departSpeed='10' />
    <vehicle id='E_N_231' type='standard_car' route='E_N' depart='412.0' departLane='random' departSpeed='10' />
    <vehicle id='S_N_232' type='standard_car' route='S_N' depart='412.0' departLane='random' departSpeed='10' />
    <vehicle id='W_S_233' type='standard_car' route='W_S' depart='413.0' departLane='random' departSpeed='10' />
    <vehicle id='E_W_234' type='standard_car' route='E_W' depart='414.0' departLane='random' departSpeed='10' />
    <vehicle id='W_E_235' type='standard_car' route='W_E' depart='414.0' departLane='random' departSpeed='10' />
    <vehicle id='N_W_236' type='standard_car' route='N_W' depart='415.0' departLane='random' departSpeed='10' />
    <vehicle id='S_N_237' type='standard_car' route='S_N' depart='418.0' departLane='random' departSpeed='10' />
    <vehicle id='S_N_238' type='standard_car' route='S_N' depart='418.0' departLane='random' departSpeed='10' />
    <vehicle id='E_W_239' type='standard_car' route='E_W' depart='419.0' departLane='random' departSpeed='10' />
    <vehicle id='W_E_240' type='standard_car' route='W_E' depart='419.0' departLane='random' departSpeed='10' />
    <vehicle id='N_S_241' type='standard_car' route='N_S' depart='420.0' departLane='random' departSpeed='10' />
    <vehicle id='N_W_242' type='standard_car' route='N_W' depart='421.0' departLane='random' departSpeed='10' />
    <vehicle id='S_N_243' type='standard_car' route='S_N' depart='422.0' departLane='random' departSpeed='10' />
    <vehicle id='W_E_244' type='standard_car' route='W_E' depart='422.0' departLane='random' departSpeed='10' />
    <vehicle id='N_W_245' type='standard_car' route='N_W' depart='422.0' departLane='random' departSpeed='10' />
    <vehicle id='E_W_246' type='standard_car' route='E_W' depart='424.0' departLane='random' departSpeed='10' />
    <vehicle id='E_N_247' type='standard_car' route='E_N' depart='425.0' departLane='random' departSpeed='10' />
    <vehicle id='N_W_248' type='standard_car' route='N_W' depart='425.0' departLane='random' departSpeed='10' />
    <vehicle id='N_S_249' type='standard_car' route='N_S' depart='425.0' departLane='random' departSpeed='10' />
    <vehicle id='E_N_250' type='standard_car' route='E_N' depart='426.0' departLane='random' departSpeed='10' />
    <vehicle id='E_N_251' type='standard_car' route='E_N' depart='426.0' departLane='random' departSpeed='10' />
    <vehicle id='W_S_252' type='standard_car' route='W_S' depart='427.0' departLane='random' departSpeed='10' />
    <vehicle id='N_S_253' type='standard_car' route='N_S' depart='427.0' departLane='random' departSpeed='10' />
    <vehicle id='S_N_254' type='standard_car' route='S_N' depart='428.0' departLane='random' departSpeed='10' />
    <vehicle id='N_S_255' type='standard_car' route='N_S' depart='430.0' departLane='random' departSpeed='10' />
    <vehicle id='N_W_256' type='standard_car' route='N_W' depart='430.0' departLane='random' departSpeed='10' />
    <vehicle id='N_S_257' type='standard_car' route='N_S' depart='430.0' departLane='random' departSpeed='10' />
    <vehicle id='N_S_258' type='standard_car' route='N_S' depart='431.0' departLane='random' departSpeed='10' />
    <vehicle id='E_W_259' type='standard_car' route='E_W' depart='431.0' departLane='random' departSpeed='10' />