<routes>
    <vType id="standard_car" length="5.0" maxSpeed="15" minGap="2.5" accel="2.0" decel="4.5" />
    <route id="N_S" edges="road_1_2_3 road_1_1_3"/>
    <route id="N_E" edges="road_1_2_3 road_1_1_0"/>
    <route id="N_W" edges="road_1_2_3 road_1_1_2"/>
    <route id="S_W" edges="road_1_0_1 road_1_1_2"/>
    <route id="S_E" edges="road_1_0_1 road_1_1_0"/>
    <route id="S_N" edges="road_1_0_1 road_1_1_1"/>

    <route id="W_E" edges="road_0_1_0 road_1_1_0"/>
    <route id="W_N" edges="road_0_1_0 road_1_1_1"/>
    <route id="W_S" edges="road_0_1_0 road_1_1_3"/>
    <route id="E_N" edges="road_2_1_2 road_1_1_1"/>
    <route id="E_S" edges="road_2_1_2 road_1_1_3"/>
    <route id="E_W" edges="road_2_1_2 road_1_1_2"/>
            
    <vehicle id='N_W_0' type='standard_car' route='N_W' depart='34.0' departLane='random' departSpeed='10' />
    <vehicle id='W_S_1' type='standard_car' route='W_S' depart='40.0' departLane='random' departSpeed='10' />
    <vehicle id='N_S_2' type='standard_car' route='N_S' depart='41.0' departLane='random' departSpeed='10' />
    <vehicle id='W_S_3' type='standard_car' route='W_S' depart='49.0' departLane='random' departSpeed='10' />
    <vehicle id='E_N_4' type='standard_car' route='E_N' depart='50.0' departLane='random' departSpeed='10' />
    <vehicle id='E_N_5' type='standard_car' route='E_N' depart='57.0' departLane='random' departSpeed='10' />
    <vehicle id='S_N_6' type='standard_car' route='S_N' depart='58.0' departLane='random' departSpeed='10' />
    <vehicle id='N_W_7' type='standard_car' route='N_W' depart='59.0' departLane='random' departSpeed='10' />
    <vehicle id='S_N_8' type='standard_car' route='S_N' depart='61.0' departLane='random' departSpeed='10' />
    <vehicle id='S_E_9' type='standard_car' route='S_E' depart='61.0' departLane='random' departSpeed='10' />
    <vehicle id='S_N_10' type='standard_car' route='S_N' depart='64.0' departLane='random' departSpeed='10' />
    <vehicle id='E_W_11' type='standard_car' route='E_W' depart='65.0' departLane='random' departSpeed='10' />
    <vehicle id='S_N_12' type='standard_car' route='S_N' depart='69.0' departLane='random' departSpeed='10' />
    <vehicle id='E_N_13' type='standard_car' route='E_N' depart='81.0' departLane='random' departSpeed='10' />
    <vehicle id='W_E_14' type='standard_car' route='W_E' depart='86.0' departLane='random' departSpeed='10' />
    <vehicle id='E_N_15' type='standard_car' route='E_N' depart='97.0' departLane='random' departSpeed='10' />
    <vehicle id='W_E_16' type='standard_car' route='W_E' depart='98.0' departLane='random' departSpeed='10' />
    <vehicle id='N_S_17' type='standard_car' route='N_S' depart='99.0' departLane='random' departSpeed='10' />
    <vehicle id='N_S_18' type='standard_car' route='N_S' depart='102.0' departLane='random' departSpeed='10' />
    <vehicle id='N_W_19' type='standard_car' route='N_W' depart='106.0' departLane='random' departSpeed='10' />
    <vehicle id='W_E_20' type='standard_car' route='W_E' depart='107.0' departLane='random' departSpeed='10' />
    <vehicle id='E_W_21' type='standard_car' route='E_W' depart='112.0' departLane='random' departSpeed='10' />
    <vehicle id='E_N_22' type='standard_car' route='E_N' depart='115.0' departLane='random' departSpeed='10' />
    <vehicle id='N_S_23' type='standard_car' route='N_S' depart='116.0' departLane='random' departSpeed='10' />
    <vehicle id='S_E_24' type='standard_car' route='S_E' depart='117.0' departLane='random' departSpeed='10' />
    <vehicle id='E_W_25' type='standard_car' route='E_W' depart='121.0' departLane='random' departSpeed='10' />
    <vehicle id='S_E_26' type='standard_car' route='S_E' depart='124.0' departLane='random' departSpeed='10' />
    <vehicle id='E_W_27' type='standard_car' route='E_W' depart='126.0' departLane='random' departSpeed='10' />
    <vehicle id='S_E_28' type='standard_car' route='S_E' depart='127.0' departLane='random' departSpeed='10' />
    <vehicle id='W_S_29' type='standard_car' route='W_S' depart='127.0' departLane='random' departSpeed='10' />
    <vehicle id='S_E_30' type='standard_car' route='S_E' depart='147.0' departLane='random' departSpeed='10' />
    <vehicle id='S_N_31' type='standard_car' route='S_N' depart='151.0' departLane='random' departSpeed='10' />
    <vehicle id='S_N_32' type='standard_car' route='S_N' depart='155.0' departLane='random' departSpeed='10' />
    <vehicle id='N_S_33' type='standard_car' route='N_S' depart='156.0' departLane='random' departSpeed='10' />
    <vehicle id='S_E_34' type='standard_car' route='S_E' depart='164.0' departLane='random' departSpeed='10' />
    <vehicle id='N_W_35' type='standard_car' route='N_W' depart='165.0' departLane='random' departSpeed='10' />
    <vehicle id='W_E_36' type='standard_car' route='W_E' depart='168.0' departLane='random' departSpeed='10' />
    <vehicle id='N_S_37' type='standard_car' route='N_S' depart='168.0' departLane='random' departSpeed='10' />
    <vehicle id='W_E_38' type='standard_car' route='W_E' depart='170.0' departLane='random' departSpeed='10' />
    <vehicle id='E_N_39' type='standard_car' route='E_N' depart='172.0' departLane='random' departSpeed='10' />
    <vehicle id='W_E_40' type='standard_car' route='W_E' depart='174.0' departLane='random' departSpeed='10' />
    <vehicle id='W_E_41' type='standard_car' route='W_E' depart='174.0' departLane='random' departSpeed='10' />
    <vehicle id='W_S_42' type='standard_car' route='W_S' depart='177.0' departLane='random' departSpeed='10' />
    <vehicle id='N_S_43' type='standard_car' route='N_S' depart='177.0' departLane='random' departSpeed='10' />
    <vehicle id='E_W_44' type='standard_car' route='E_W' depart='178.0' departLane='random' departSpeed='10' />
    <vehicle id='E_W_45' type='standard_car' route='E_W' depart='182.0' departLane='random' departSpeed='10' />
    <vehicle id='N_W_46' type='standard_car' route='N_W' depart='182.0' departLane='random' departSpeed='10' />
    <vehicle id='S_E_47' type='standard_car' route='S_E' depart='182.0' departLane='random' departSpeed='10' />
    <vehicle id='W_S_48' type='standard_car' route='W_S' depart='182.0' departLane='random' departSpeed='10' />
    <vehicle id='N_W_49' type='standard_car' route='N_W' depart='184.0' departLane='random' departSpeed='10' />
    <vehicle id='E_W_50' type='standard_car' route='E_W' depart='188.0' departLane='random' departSpeed='10' />
    <vehicle id='N_S_51' type='standard_car' route='N_S' depart='192.0' departLane='random' departSpeed='10' />
    <vehicle id='N_W_52' type='standard_car' route='N_W' depart='197.0' departLane='random' departSpeed='10' />
    <vehicle id='S_N_53' type='standard_car' route='S_N' depart='197.0' departLane='random' departSpeed='10' />
    <vehicle id='W_E_54' type='standard_car' route='W_E' depart='199.0' departLane='random' departSpeed='10' />
    <vehicle id='S_N_55' type='standard_car' route='S_N' depart='200.0' departLane='random' departSpeed='10' />
    <vehicle id='N_S_56' type='standard_car' route='N_S' depart='201.0' departLane='random' departSpeed='10' />
    <vehicle id='W_E_57' type='standard_car' route='W_E' depart='201.0' departLane='random' departSpeed='10' />
    <vehicle id='N_S_58' type='standard_car' route='N_S' depart='202.0' departLane='random' departSpeed='10' />
    <vehicle id='N_S_59' type='standard_car' route='N_S' depart='205.0' departLane='random' departSpeed='10' />
    <vehicle id='E_N_60' type='standard_car' route='E_N' depart='205.0' departLane='random' departSpeed='10' />
    <vehicle id='W_S_61' type='standard_car' route='W_S' depart='206.0' departLane='random' departSpeed='10' />
    <vehicle id='E_N_62' type='standard_car' route='E_N' depart='210.0' departLane='random' departSpeed='10' />
    <vehicle id='E_W_63' type='standard_car' route='E_W' depart='210.0' departLane='random' departSpeed='10' />
    <vehicle id='W_S_64' type='standard_car' route='W_S' depart='211.0' departLane='random' departSpeed='10' />
    <vehicle id='S_N_65' type='standard_car' route='S_N' depart='212.0' departLane='random' departSpeed='10' />
    <vehicle id='S_E_66' type='standard_car' route='S_E' depart='212.0' departLane='random' departSpeed='10' />
    <vehicle id='S_E_67' type='standard_car' route='S_E' depart='212.0' departLane='random' departSpeed='10' />
    <vehicle id='W_E_68' type='standard_car' route='W_E' depart='212.0' departLane='random' departSpeed='10' />
    <vehicle id='W_S_69' type='standard_car' route='W_S' depart='213.0' departLane='random' departSpeed='10' />
    <vehicle id='S_E_70' type='standard_car' route='S_E' depart='214.0' departLane='random' departSpeed='10' />
    <vehicle id='W_S_71' type='standard_car' route='W_S' depart='215.0' departLane='random' departSpeed='10' />
    <vehicle id='N_S_72' type='standard_car' route='N_S' depart='221.0' departLane='random' departSpeed='10' />
    <vehicle id='S_N_73' type='standard_car' route='S_N' depart='228.0' departLane='random' departSpeed='10' />
    <vehicle id='W_E_74' type='standard_car' route='W_E' depart='231.0' departLane='random' departSpeed='10' />
    <vehicle id='N_S_75' type='standard_car' route='N_S' depart='233.0' departLane='random' departSpeed='10' />
    <vehicle id='S_E_76' type='standard_car' route='S_E' depart='233.0' departLane='random' departSpeed='10' />
    <vehicle id='W_S_77' type='standard_car' route='W_S' depart='235.0' departLane='random' departSpeed='10' />
    <vehicle id='N_S_78' type='standard_car' route='N_S' depart='236.0' departLane='random' departSpeed='10' />
    <vehicle id='E_W_79' type='standard_car' route='E_W' depart='236.0' departLane='random' departSpeed='10' />
    <vehicle id='E_W_80' type='standard_car' route='E_W' depart='237.0' departLane='random' departSpeed='10' />
    <vehicle id='S_N_81' type='standard_car' route='S_N' depart='240.0' departLane='random' departSpeed='10' />
    <vehicle id='W_E_82' type='standard_car' route='W_E' depart='241.0' departLane='random' departSpeed='10' />
    <vehicle id='N_S_83' type='standard_car' route='N_S' depart='244.0' departLane='random' departSpeed='10' />
    <vehicle id='N_W_84' type='standard_car' route='N_W' depart='246.0' departLane='random' departSpeed='10' />
    <vehicle id='S_N_85' type='standard_car' route='S_N' depart='246.0' departLane='random' departSpeed='10' />
    <vehicle id='E_N_86' type='standard_car' route='E_N' depart='249.0' departLane='random' departSpeed='10' />
    <vehicle id='E_W_87' type='standard_car' route='E_W' depart='250.0' departLane='random' departSpeed='10' />
    <vehicle id='W_E_88' type='standard_car' route='W_E' depart='251.0' departLane='random' departSpeed='10' />
    <vehicle id='N_S_89' type='standard_car' route='N_S' depart='251.0' departLane='random' departSpeed='10' />
    <vehicle id='S_N_90' type='standard_car' route='S_N' depart='252.0' departLane='random' departSpeed='10' />
    <vehicle id='N_W_91' type='standard_car' route='N_W' depart='252.0' departLane='random' departSpeed='10' />
    <vehicle id='N_W_92' type='standard_car' route='N_W' depart='257.0' departLane='random' departSpeed='10' />
    <vehicle id='S_N_93' type='standard_car' route='S_N' depart='261.0' departLane='random' departSpeed='10' />
    <vehicle id='E_N_94' type='standard_car' route='E_N' depart='263.0' departLane='random' departSpeed='10' />
    <vehicle id='N_W_95' type='standard_car' route='N_W' depart='263.0' departLane='random' departSpeed='10' />
    <vehicle id='N_S_96' type='standard_car' route='N_S' depart='264.0' departLane='random' departSpeed='10' />
    <vehicle id='W_S_97' type='standard_car' route='W_S' depart='266.0' departLane='random' departSpeed='10' />
    <vehicle id='N_W_98' type='standard_car' route='N_W' depart='267.0' departLane='random' departSpeed='10' />
    <vehicle id='E_W_99' type='standard_car' route='E_W' depart='270.0' departLane='random' departSpeed='10' />
    <vehicle id='S_E_100' type='standard_car' route='S_E' depart='272.0' departLane='random' departSpeed='10' />
    <vehicle id='N_S_101' type='standard_car' route='N_S' depart='276.0' departLane='random' departSpeed='10' />
    <vehicle id='E_W_102' type='standard_car' route='E_W' depart='278.0' departLane='random' departSpeed='10' />
    <vehicle id='N_S_103' type='standard_car' route='N_S' depart='282.0' departLane='random' departSpeed='10' />
    <vehicle id='N_S_104' type='standard_car' route='N_S' depart='283.0' departLane='random' departSpeed='10' />
    <vehicle id='S_N_105' type='standard_car' route='S_N' depart='285.0' departLane='random' departSpeed='10' />
    <vehicle id='S_E_106' type='standard_car' route='S_E' depart='288.0' departLane='random' departSpeed='10' />
    <vehicle id='N_S_107' type='standard_car' route='N_S' depart='289.0' departLane='random' departSpeed='10' />
    <vehicle id='E_N_108' type='standard_car' route='E_N' depart='289.0' departLane='random' departSpeed='10' />
    <vehicle id='W_S_109' type='standard_car' route='W_S' depart='291.0' departLane='random' departSpeed='10' />
    <vehicle id='N_W_110' type='standard_car' route='N_W' depart='293.0' departLane='random' departSpeed='10' />
    <vehicle id='S_N_111' type='standard_car' route='S_N' depart='294.0' departLane='random' departSpeed='10' />
    <vehicle id='N_W_112' type='standard_car' route='N_W' depart='295.0' departLane='random' departSpeed='10' />
    <vehicle id='S_N_113' type='standard_car' route='S_N' depart='296.0' departLane='random' departSpeed='10' />
    <vehicle id='S_N_114' type='standard_car' route='S_N' depart='298.0' departLane='random' departSpeed='10' />
    <vehicle id='S_E_115' type='standard_car' route='S_E' depart='299.0' departLane='random' departSpeed='10' />
    <vehicle id='S_E_116' type='standard_car' route='S_E' depart='299.0' departLane='random' departSpeed='10' />
    <vehicle id='E_W_117' type='standard_car' route='E_W' depart='301.0' departLane='random' departSpeed='10' />
    <vehicle id='E_N_118' type='standard_car' route='E_N' depart='307.0' departLane='random' departSpeed='10' />
    <vehicle id='S_N_119' type='standard_car' route='S_N' depart='308.0' departLane='random' departSpeed='10' />
    <vehicle id='N_S_120' type='standard_car' route='N_S' depart='308.0' departLane='random' departSpeed='10' />
    <vehicle id='E_W_121' type='standard_car' route='E_W' depart='310.0' departLane='random' departSpeed='10' />
    <vehicle id='E_W_122' type='standard_car' route='E_W' depart='310.0' departLane='random' departSpeed='10' />
    <vehicle id='S_N_123' type='standard_car' route='S_N' depart='310.0' departLane='random' departSpeed='10' />
    <vehicle id='N_S_124' type='standard_car' route='N_S' depart='313.0' departLane='random' departSpeed='10' />
    <vehicle id='E_W_125' type='standard_car' route='E_W' depart='315.0' departLane='random' departSpeed='10' />
    <vehicle id='E_W_126' type='standard_car' route='E_W' depart='316.0' departLane='random' departSpeed='10' />
    <vehicle id='W_E_127' type='standard_car' route='W_E' depart='317.0' departLane='random' departSpeed='10' />
    <vehicle id='W_E_128' type='standard_car' route='W_E' depart='318.0' departLane='random' departSpeed='10' />
    <vehicle id='W_S_129' type='standard_car' route='W_S' depart='319.0' departLane='random' departSpeed='10' />
    <vehicle id='S_E_130' type='standard_car' route='S_E' depart='323.0' departLane='random' departSpeed='10' />
    <vehicle id='W_E_131' type='standard_car' route='W_E' depart='323.0' departLane='random' departSpeed='10' />
    <vehicle id='W_S_132' type='standard_car' route='W_S' depart='324.0' departLane='random' departSpeed='10' />
    <vehicle id='W_E_133' type='standard_car' route='W_E' depart='325.0' departLane='random' departSpeed='10' />
    <vehicle id='W_E_134' type='standard_car' route='W_E' depart='325.0' departLane='random' departSpeed='10' />
    <vehicle id='E_W_135' type='standard_car' route='E_W' depart='326.0' departLane='random' departSpeed='10' />
    <vehicle id='W_E_136' type='standard_car' route='W_E' depart='326.0' departLane='random' departSpeed='10' />
    <vehicle id='E_N_137' type='standard_car' route='E_N' depart='326.0' departLane='random' departSpeed='10' />
    <vehicle id='E_W_138' type='standard_car' route='E_W' depart='328.0' departLane='random' departSpeed='10' />
    <vehicle id='N_S_139' type='standard_car' route='N_S' depart='328.0' departLane='random' departSpeed='10' />
    <vehicle id='S_N_140' type='standard_car' route='S_N' depart='330.0' departLane='random' departSpeed='10' />
    <vehicle id='S_N_141' type='standard_car' route='S_N' depart='330.0' departLane='random' departSpeed='10' />
    <vehicle id='E_N_142' type='standard_car' route='E_N' depart='330.0' departLane='random' departSpeed='10' />
    <vehicle id='S_N_143' type='standard_car' route='S_N' depart='338.0' departLane='random' departSpeed='10' />
    <vehicle id='N_S_144' type='standard_car' route='N_S' depart='338.0' departLane='random' departSpeed='10' />
    <vehicle id='S_E_145' type='standard_car' route='S_E' depart='339.0' departLane='random' departSpeed='10' />
    <vehicle id='W_S_146' type='standard_car' route='W_S' depart='340.0' departLane='random' departSpeed='10' />
    <vehicle id='E_W_147' type='standard_car' route='E_W' depart='340.0' departLane='random' departSpeed='10' />
    <vehicle id='W_E_148' type='standard_car' route='W_E' depart='343.0' departLane='random' departSpeed='10' />
    <vehicle id='N_S_149' type='standard_car' route='N_S' depart='343.0' departLane='random' departSpeed='10' />
    <vehicle id='N_S_150' type='standard_car' route='N_S' depart='345.0' departLane='random' departSpeed='10' />
    <vehicle id='W_E_151' type='standard_car' route='W_E' depart='347.0' departLane='random' departSpeed='10' />
    <vehicle id='E_W_152' type='standard_car' route='E_W' depart='350.0' departLane='random' departSpeed='10' />
    <vehicle id='E_W_153' type='standard_car' route='E_W' depart='350.0' departLane='random' departSpeed='10' />
    <vehicle id='N_S_154' type='standard_car' route='N_S' depart='351.0' departLane='random' departSpeed='10' />
    <vehicle id='W_E_155' type='standard_car' route='W_E' depart='351.0' departLane='random' departSpeed='10' />
    <vehicle id='S_N_156' type='standard_car' route='S_N' depart='351.0' departLane='random' departSpeed='10' />
    <vehicle id='N_W_157' type='standard_car' route='N_W' depart='352.0' departLane='random' departSpeed='10' />
    <vehicle id='N_W_158' type='standard_car' route='N_W' depart='354.0' departLane='random' departSpeed='10' />
    <vehicle id='S_N_159' type='standard_car' route='S_N' depart='354.0' departLane='random' departSpeed='10' />
    <vehicle id='S_N_160' type='standard_car' route='S_N' depart='355.0' departLane='random' departSpeed='10' />
    <vehicle id='W_S_161' type='standard_car' route='W_S' depart='360.0' departLane='random' departSpeed='10' />
    <vehicle id='N_S_162' type='standard_car' route='N_S' depart='360.0' departLane='random' departSpeed='10' />
    <vehicle id='E_W_163' type='standard_car' route='E_W' depart='361.0' departLane='random' departSpeed='10' />
    <vehicle id='E_N_164' type='standard_car' route='E_N' depart='362.0' departLane='random' departSpeed='10' />
    <vehicle id='E_N_165' type='standard_car' route='E_N' depart='362.0' departLane='random' departSpeed='10' />
    <vehicle id='W_S_166' type='standard_car' route='W_S' depart='364.0' departLane='random' departSpeed='10' />
    <vehicle id='E_N_167' type='standard_car' route='E_N' depart='364.0' departLane='random' departSpeed='10' />
    <vehicle id='E_W_168' type='standard_car' route='E_W' depart='364.0' departLane='random' departSpeed='10' />
    <vehicle id='E_W_169' type='standard_car' route='E_W' depart='364.0' departLane='random' departSpeed='10' />
    <vehicle id='E_N_170' type='standard_car' route='E_N' depart='364.0' departLane='random' departSpeed='10' />
    <vehicle id='E_W_171' type='standard_car' route='E_W' depart='365.0' departLane='random' departSpeed='10' />
    <vehicle id='S_N_172' type='standard_car' route='S_N' depart='367.0' departLane='random' departSpeed='10' />
    <vehicle id='E_W_173' type='standard_car' route='E_W' depart='368.0' departLane='random' departSpeed='10' />
    <vehicle id='W_E_174' type='standard_car' route='W_E' depart='369.0' departLane='random' departSpeed='10' />
    <vehicle id='W_E_175' type='standard_car' route='W_E' depart='369.0' departLane='random' departSpeed='10' />
    <vehicle id='S_E_176' type='standard_car' route='S_E' depart='370.0' departLane='random' departSpeed='10' />
    <vehicle id='N_W_177' type='standard_car' route='N_W' depart='373.0' departLane='random' departSpeed='10' />
    <vehicle id='W_S_178' type='standard_car' route='W_S' depart='373.0' departLane='random' departSpeed='10' />
    <vehicle id='S_E_179' type='standard_car' route='S_E' depart='374.0' departLane='random' departSpeed='10' />
    <vehicle id='S_E_180' type='standard_car' route='S_E' depart='375.0' departLane='random' departSpeed='10' />
    <vehicle id='E_N_181' type='standard_car' route='E_N' depart='375.0' departLane='random' departSpeed='10' />
    <vehicle id='W_E_182' type='standard_car' route='W_E' depart='375.0' departLane='random' departSpeed='10' />
    <vehicle id='W_E_183' type='standard_car' route='W_E' depart='376.0' departLane='random' departSpeed='10' />
    <vehicle id='S_E_184' type='standard_car' route='S_E' depart='376.0' departLane='random' departSpeed='10' />
    <vehicle id='S_E_185' type='standard_car' route='S_E' depart='378.0' departLane='random' departSpeed='10' />
    <vehicle id='W_E_186' type='standard_car' route='W_E' depart='378.0' departLane='random' departSpeed='10' />
    <vehicle id='N_S_187' type='standard_car' route='N_S' depart='379.0' departLane='random' departSpeed='10' />
    <vehicle id='W_S_188' type='standard_car' route='W_S' depart='379.0' departLane='random' departSpeed='10' />
    <vehicle id='E_W_189' type='standard_car' route='E_W' depart='380.0' departLane='random' departSpeed='10' />
    <vehicle id='S_N_190' type='standard_car' route='S_N' depart='381.0' departLane='random' departSpeed='10' />
    <vehicle id='N_W_191' type='standard_car' route='N_W' depart='383.0' departLane='random' departSpeed='10' />
    <vehicle id='E_W_192' type='standard_car' route='E_W' depart='384.0' departLane='random' departSpeed='10' />
    <vehicle id='W_E_193' type='standard_car' route='W_E' depart='385.0' departLane='random' departSpeed='10' />
    <vehicle id='N_S_194' type='standard_car' route='N_S' depart='387.0' departLane='random' departSpeed='10' />
    <vehicle id='E_N_195' type='standard_car' route='E_N' depart='389.0' departLane='random' departSpeed='10' />
    <vehicle id='W_S_196' type='standard_car' route='W_S' depart='390.0' departLane='random' departSpeed='10' />
    <vehicle id='S_E_197' type='standard_car' route='S_E' depart='390.0' departLane='random' departSpeed='10' />
    <vehicle id='N_W_198' type='standard_car' route='N_W' depart='391.0' departLane='random' departSpeed='10' />
    <vehicle id='W_E_199' type='standard_car' route='W_E' depart='391.0' departLane='random' departSpeed='10' />
    <vehicle id='S_N_200' type='standard_car' route='S_N' depart='391.0' departLane='random' departSpeed='10' />
    <vehicle id='S_N_201' type='standard_car' route='S_N' depart='393.0' departLane='random' departSpeed='10' />
    <vehicle id='N_W_202' type='standard_car' route='N_W' depart='395.0' departLane='random' departSpeed='10' />
    <vehicle id='S_N_203' type='standard_car' route='S_N' depart='396.0' departLane='random' departSpeed='10' />
    <vehicle id='S_E_204' type='standard_car' route='S_E' depart='398.0' departLane='random' departSpeed='10' />
    <vehicle id='E_N_205' type='standard_car' route='E_N' depart='399.0' departLane='random' departSpeed='10' />
    <vehicle id='E_W_206' type='standard_car' route='E_W' depart='401.0' departLane='random' departSpeed='10' />
    <vehicle id='E_N_207' type='standard_car' route='E_N' depart='401.0' departLane='random' departSpeed='10' />
    <vehicle id='N_W_208' type='standard_car' route='N_W' depart='401.0' departLane='random' departSpeed='10' />
    <vehicle id='W_E_209' type='standard_car' route='W_E' depart='402.0' departLane='random' departSpeed='10' />
    <vehicle id='E_W_210' type='standard_car' route='E_W' depart='402.0' departLane='random' departSpeed='10' />
    <vehicle id='N_W_211' type='standard_car' route='N_W' depart='404.0' departLane='random' departSpeed='10' />
    <vehicle id='E_N_212' type='standard_car' route='E_N' depart='405.0' departLane='random' departSpeed='10' />
    <vehicle id='E_W_213' type='standard_car' route='E_W' depart='407.0' departLane='random' departSpeed='10' />
    <vehicle id='E_N_214' type='standard_car' route='E_N' depart='408.0' departLane='random' departSpeed='10' />
    <vehicle id='E_W_215' type='standard_car' route='E_W' depart='409.0' departLane='random' departSpeed='10' />
    <vehicle id='W_E_216' type='standard_car' route='W_E' depart='411.0' departLane='random' departSpeed='10' />
    <vehicle id='W_S_217' type='standard_car' route='W_S' depart='412.0' departLane='random' departSpeed='10' />
    <vehicle id='S_N_218' type='standard_car' route='S_N' depart='413.0' departLane='random' departSpeed='10' />
    <vehicle id='W_E_219' type='standard_car' route='W_E' depart='414.0' departLane='random' departSpeed='10' />
    <vehicle id='W_E_220' type='standard_car' route='W_E' depart='415.0' departLane='random' departSpeed='10' />
    <vehicle id='S_E_221' type='standard_car' route='S_E' depart='418.0' departLane='random' departSpeed='10' />
    <vehicle id='W_E_222' type='standard_car' route='W_E' depart='418.0' departLane='random' departSpeed='10' />
    <vehicle id='W_E_223' type='standard_car' route='W_E' depart='418.0' departLane='random' departSpeed='10' />
    <vehicle id='N_W_224' type='standard_car' route='N_W' depart='420.0' departLane='random' departSpeed='10' />
    <vehicle id='W_S_225' type='standard_car' route='W_S' depart='422.0' departLane='random' departSpeed='10' />
    <vehicle id='S_N_226' type='standard_car' route='S_N' depart='423.0' departLane='random' departSpeed='10' />
    <vehicle id='S_E_227' type='standard_car' route='S_E' depart='424.0' departLane='random' departSpeed='10' />
    <vehicle id='E_W_228' type='standard_car' route='E_W' depart='424.0' departLane='random' departSpeed='10' />
    <vehicle id='W_E_229' type='standard_car' route='W_E' depart='424.0' departLane='random' departSpeed='10' />
    <vehicle id='S_N_230' type='standard_car' route='S_N' depart='424.0' departLane='random' departSpeed='10' />
    <vehicle id='N_W_231' type='standard_car' route='N_W' depart='425.0' departLane='random' departSpeed='10' />
    <vehicle id='E_N_232' type='standard_car' route='E_N' depart='425.0' departLane='random' departSpeed='10' />
    <vehicle id='W_S_233' type='standard_car' route='W_S' depart='425.0' departLane='random' departSpeed='10' />
    <vehicle id='N_W_234' type='standard_car' route='N_W' depart='427.0' departLane='random' departSpeed='10' />
    <vehicle id='S_N_235' type='standard_car' route='S_N' depart='428.0' departLane='random' departSpeed='10' />
    <vehicle id='N_W_236' type='standard_car' route='N_W' depart='429.0' departLane='random' departSpeed='10' />
    <vehicle id='W_E_237' type='standard_car' route='W_E' depart='429.0' departLane='random' departSpeed='10' />
    <vehicle id='E_W_238' type='standard_car' route='E_W' depart='429.0' departLane='random' departSpeed='10' />
    <vehicle id='W_S_239' type='standard_car' route='W_S' depart='431.0' departLane='random' departSpeed='10' />
    <vehicle id='S_N_240' type='standard_car' route='S_N' depart='433.0' departLane='random' departSpeed='10' />
    <vehicle id='N_S_241' type='standard_car' route='N_S' depart='433.0' departLane='random' departSpeed='10' />
    <vehicle id='N_W_242' type='standard_car' route='N_W' depart='435.0' departLane='random' departSpeed='10' />
    <vehicle id='W_S_243' type='standard_car' route='W_S' depart='436.0' departLane='random' departSpeed='10' />
    <vehicle id='W_E_244' type='standard_car' route='W_E' depart='437.0' departLane='random' departSpeed='10' />
    <vehicle id='N_W_245' type='standard_car' route='N_W' depart='438.0' departLane='random' departSpeed='10' />
    <vehicle id='S_N_246' type='standard_car' route='S_N' depart='440.0' departLane='random' departSpeed='10' />
    <vehicle id='N_S_247' type='standard_car' route='N_S' depart='441.0' departLane='random' departSpeed='10' />
    <vehicle id='N_S_248' type='standard_car' route='N_S' depart='443.0' departLane='random' departSpeed='10' />
    <vehicle id='S_N_249' type='standard_car' route='S_N' depart='443.0' departLane='random' departSpeed='10' />
    <vehicle id='S_N_250' type='standard_car' route='S_N' depart='443.0' departLane='random' departSpeed='10' />
    <vehicle id='W_E_251' type='standard_car' route='W_E' depart='447.0' departLane='random' departSpeed='10' />
    <vehicle id='N_S_252' type='standard_car' route='N_S' depart='448.0' departLane='random' departSpeed='10' />
    <vehicle id='W_E_253' type='standard_car' route='W_E' depart='449.0' departLane='random' departSpeed='10' />
    <vehicle id='E_N_254' type='standard_car' route='E_N' depart='449.0' departLane='random' departSpeed='10' />
    <vehicle id='N_S_255' type='standard_car' route='N_S' depart='449.0' departLane='random' departSpeed='10' />
    <vehicle id='W_E_256' type='standard_car' route='W_E' depart='450.0' departLane='random' departSpeed='10' />
    <vehicle id='W_E_257' type='standard_car' route='W_E' depart='452.0' departLane='random' departSpeed='10' />
    <vehicle id='E_N_258' type='standard_car' route='E_N' depart='456.0' departLane='random' departSpeed='10' />
    <vehicle id='E_W_259' type='standard_car' route='E_W' depart='457.0' departLane='random' departSpeed='10' />