<routes>
    <vType id="standard_car" length="5.0" maxSpeed="15" minGap="2.5" accel="2.0" decel="4.5" />
    <route id="N_S" edges="road_1_2_3 road_1_1_3"/>
    <route id="N_E" edges="road_1_2_3 road_1_1_0"/>
    <route id="N_W" edges="road_1_2_3 road_1_1_2"/>
    <route id="S_W" edges="road_1_0_1 road_1_1_2"/>
    <route id="S_E" edges="road_1_0_1 road_1_1_0"/>
    <route id="S_N" edges="road_1_0_1 road_1_1_1"/>

    <route id="W_E" edges="road_0_1_0 road_1_1_0"/>
    <route id="W_N" edges="road_0_1_0 road_1_1_1"/>
    <route id="W_S" edges="road_0_1_0 road_1_1_3"/>
    <route id="E_N" edges="road_2_1_2 road_1_1_1"/>
    <route id="E_S" edges="road_2_1_2 road_1_1_3"/>
    <route id="E_W" edges="road_2_1_2 road_1_1_2"/>
            
    <vehicle id='E_W_0' type='standard_car' route='E_W' depart='22.0' departLane='random' departSpeed='10' />
    <vehicle id='N_S_1' type='standard_car' route='N_S' depart='27.0' departLane='random' departSpeed='10' />
    <vehicle id='S_N_2' type='standard_car' route='S_N' depart='35.0' departLane='random' departSpeed='10' />
    <vehicle id='S_E_3' type='standard_car' route='S_E' depart='40.0' departLane='random' departSpeed='10' />
    <vehicle id='S_N_4' type='standard_car' route='S_N' depart='53.0' departLane='random' departSpeed='10' />
    <vehicle id='N_S_5' type='standard_car' route='N_S' depart='62.0' departLane='random' departSpeed='10' />
    <vehicle id='W_E_6' type='standard_car' route='W_E' depart='65.0' departLane='random' departSpeed='10' />
    <vehicle id='S_N_7' type='standard_car' route='S_N' depart='70.0' departLane='random' departSpeed='10' />
    <vehicle id='E_W_8' type='standard_car' route='E_W' depart='75.0' departLane='random' departSpeed='10' />
    <vehicle id='E_W_9' type='standard_car' route='E_W' depart='87.0' departLane='random' departSpeed='10' />
    <vehicle id='S_E_10' type='standard_car' route='S_E' depart='88.0' departLane='random' departSpeed='10' />
    <vehicle id='N_S_11' type='standard_car' route='N_S' depart='88.0' departLane='random' departSpeed='10' />
    <vehicle id='W_E_12' type='standard_car' route='W_E' depart='94.0' departLane='random' departSpeed='10' />
    <vehicle id='W_E_13' type='standard_car' route='W_E' depart='99.0' departLane='random' departSpeed='10' />
    <vehicle id='E_N_14' type='standard_car' route='E_N' depart='99.0' departLane='random' departSpeed='10' />
    <vehicle id='S_N_15' type='standard_car' route='S_N' depart='101.0' departLane='random' departSpeed='10' />
    <vehicle id='S_E_16' type='standard_car' route='S_E' depart='101.0' departLane='random' departSpeed='10' />
    <vehicle id='N_W_17' type='standard_car' route='N_W' depart='110.0' departLane='random' departSpeed='10' />
    <vehicle id='E_W_18' type='standard_car' route='E_W' depart='117.0' departLane='random' departSpeed='10' />
    <vehicle id='N_S_19' type='standard_car' route='N_S' depart='117.0' departLane='random' departSpeed='10' />
    <vehicle id='S_N_20' type='standard_car' route='S_N' depart='118.0' departLane='random' departSpeed='10' />
    <vehicle id='S_E_21' type='standard_car' route='S_E' depart='119.0' departLane='random' departSpeed='10' />
    <vehicle id='S_N_22' type='standard_car' route='S_N' depart='120.0' departLane='random' departSpeed='10' />
    <vehicle id='N_S_23' type='standard_car' route='N_S' depart='120.0' departLane='random' departSpeed='10' />
    <vehicle id='S_E_24' type='standard_car' route='S_E' depart='123.0' departLane='random' departSpeed='10' />
    <vehicle id='W_E_25' type='standard_car' route='W_E' depart='123.0' departLane='random' departSpeed='10' />
    <vehicle id='N_S_26' type='standard_car' route='N_S' depart='125.0' departLane='random' departSpeed='10' />
    <vehicle id='N_S_27' type='standard_car' route='N_S' depart='125.0' departLane='random' departSpeed='10' />
    <vehicle id='S_E_28' type='standard_car' route='S_E' depart='126.0' departLane='random' departSpeed='10' />
    <vehicle id='S_N_29' type='standard_car' route='S_N' depart='131.0' departLane='random' departSpeed='10' />
    <vehicle id='E_W_30' type='standard_car' route='E_W' depart='133.0' departLane='random' departSpeed='10' />
    <vehicle id='N_S_31' type='standard_car' route='N_S' depart='134.0' departLane='random' departSpeed='10' />
    <vehicle id='N_S_32' type='standard_car' route='N_S' depart='137.0' departLane='random' departSpeed='10' />
    <vehicle id='N_S_33' type='standard_car' route='N_S' depart='139.0' departLane='random' departSpeed='10' />
    <vehicle id='N_S_34' type='standard_car' route='N_S' depart='142.0' departLane='random' departSpeed='10' />
    <vehicle id='E_W_35' type='standard_car' route='E_W' depart='143.0' departLane='random' departSpeed='10' />
    <vehicle id='N_S_36' type='standard_car' route='N_S' depart='144.0' departLane='random' departSpeed='10' />
    <vehicle id='N_S_37' type='standard_car' route='N_S' depart='146.0' departLane='random' departSpeed='10' />
    <vehicle id='E_N_38' type='standard_car' route='E_N' depart='148.0' departLane='random' departSpeed='10' />
    <vehicle id='N_S_39' type='standard_car' route='N_S' depart='149.0' departLane='random' departSpeed='10' />
    <vehicle id='N_S_40' type='standard_car' route='N_S' depart='150.0' departLane='random' departSpeed='10' />
    <vehicle id='W_E_41' type='standard_car' route='W_E' depart='150.0' departLane='random' departSpeed='10' />
    <vehicle id='W_E_42' type='standard_car' route='W_E' depart='150.0' departLane='random' departSpeed='10' />
    <vehicle id='E_W_43' type='standard_car' route='E_W' depart='150.0' departLane='random' departSpeed='10' />
    <vehicle id='N_S_44' type='standard_car' route='N_S' depart='151.0' departLane='random' departSpeed='10' />
    <vehicle id='E_N_45' type='standard_car' route='E_N' depart='153.0' departLane='random' departSpeed='10' />
    <vehicle id='N_W_46' type='standard_car' route='N_W' depart='157.0' departLane='random' departSpeed='10' />
    <vehicle id='W_E_47' type='standard_car' route='W_E' depart='159.0' departLane='random' departSpeed='10' />
    <vehicle id='E_N_48' type='standard_car' route='E_N' depart='160.0' departLane='random' departSpeed='10' />
    <vehicle id='W_E_49' type='standard_car' route='W_E' depart='161.0' departLane='random' departSpeed='10' />
    <vehicle id='E_W_50' type='standard_car' route='E_W' depart='162.0' departLane='random' departSpeed='10' />
    <vehicle id='W_S_51' type='standard_car' route='W_S' depart='163.0' departLane='random' departSpeed='10' />
    <vehicle id='S_E_52' type='standard_car' route='S_E' depart='168.0' departLane='random' departSpeed='10' />
    <vehicle id='E_W_53' type='standard_car' route='E_W' depart='169.0' departLane='random' departSpeed='10' />
    <vehicle id='S_N_54' type='standard_car' route='S_N' depart='170.0' departLane='random' departSpeed='10' />
    <vehicle id='N_S_55' type='standard_car' route='N_S' depart='171.0' departLane='random' departSpeed='10' />
    <vehicle id='S_N_56' type='standard_car' route='S_N' depart='171.0' departLane='random' departSpeed='10' />
    <vehicle id='N_W_57' type='standard_car' route='N_W' depart='175.0' departLane='random' departSpeed='10' />
    <vehicle id='S_N_58' type='standard_car' route='S_N' depart='183.0' departLane='random' departSpeed='10' />
    <vehicle id='N_W_59' type='standard_car' route='N_W' depart='183.0' departLane='random' departSpeed='10' />
    <vehicle id='S_N_60' type='standard_car' route='S_N' depart='184.0' departLane='random' departSpeed='10' />
    <vehicle id='N_S_61' type='standard_car' route='N_S' depart='184.0' departLane='random' departSpeed='10' />
    <vehicle id='N_W_62' type='standard_car' route='N_W' depart='185.0' departLane='random' departSpeed='10' />
    <vehicle id='N_S_63' type='standard_car' route='N_S' depart='186.0' departLane='random' departSpeed='10' />
    <vehicle id='E_W_64' type='standard_car' route='E_W' depart='187.0' departLane='random' departSpeed='10' />
    <vehicle id='W_S_65' type='standard_car' route='W_S' depart='188.0' departLane='random' departSpeed='10' />
    <vehicle id='N_W_66' type='standard_car' route='N_W' depart='191.0' departLane='random' departSpeed='10' />
    <vehicle id='S_E_67' type='standard_car' route='S_E' depart='191.0' departLane='random' departSpeed='10' />
    <vehicle id='N_W_68' type='standard_car' route='N_W' depart='191.0' departLane='random' departSpeed='10' />
    <vehicle id='S_E_69' type='standard_car' route='S_E' depart='192.0' departLane='random' departSpeed='10' />
    <vehicle id='W_E_70' type='standard_car' route='W_E' depart='193.0' departLane='random' departSpeed='10' />
    <vehicle id='E_N_71' type='standard_car' route='E_N' depart='196.0' departLane='random' departSpeed='10' />
    <vehicle id='W_E_72' type='standard_car' route='W_E' depart='199.0' departLane='random' departSpeed='10' />
    <vehicle id='S_E_73' type='standard_car' route='S_E' depart='199.0' departLane='random' departSpeed='10' />
    <vehicle id='W_E_74' type='standard_car' route='W_E' depart='208.0' departLane='random' departSpeed='10' />
    <vehicle id='E_N_75' type='standard_car' route='E_N' depart='210.0' departLane='random' departSpeed='10' />
    <vehicle id='W_E_76' type='standard_car' route='W_E' depart='214.0' departLane='random' departSpeed='10' />
    <vehicle id='W_S_77' type='standard_car' route='W_S' depart='214.0' departLane='random' departSpeed='10' />
    <vehicle id='W_E_78' type='standard_car' route='W_E' depart='216.0' departLane='random' departSpeed='10' />
    <vehicle id='W_E_79' type='standard_car' route='W_E' depart='218.0' departLane='random' departSpeed='10' />
    <vehicle id='N_S_80' type='standard_car' route='N_S' depart='218.0' departLane='random' departSpeed='10' />
    <vehicle id='E_W_81' type='standard_car' route='E_W' depart='220.0' departLane='random' departSpeed='10' />
    <vehicle id='W_E_82' type='standard_car' route='W_E' depart='221.0' departLane='random' departSpeed='10' />
    <vehicle id='W_E_83' type='standard_car' route='W_E' depart='223.0' departLane='random' departSpeed='10' />
    <vehicle id='E_N_84' type='standard_car' route='E_N' depart='227.0' departLane='random' departSpeed='10' />
    <vehicle id='W_E_85' type='standard_car' route='W_E' depart='228.0' departLane='random' departSpeed='10' />
    <vehicle id='S_E_86' type='standard_car' route='S_E' depart='229.0' departLane='random' departSpeed='10' />
    <vehicle id='W_E_87' type='standard_car' route='W_E' depart='234.0' departLane='random' departSpeed='10' />
    <vehicle id='S_N_88' type='standard_car' route='S_N' depart='237.0' departLane='random' departSpeed='10' />
    <vehicle id='N_W_89' type='standard_car' route='N_W' depart='238.0' departLane='random' departSpeed='10' />
    <vehicle id='S_N_90' type='standard_car' route='S_N' depart='238.0' departLane='random' departSpeed='10' />
    <vehicle id='S_N_91' type='standard_car' route='S_N' depart='239.0' departLane='random' departSpeed='10' />
    <vehicle id='N_S_92' type='standard_car' route='N_S' depart='241.0' departLane='random' departSpeed='10' />
    <vehicle id='W_S_93' type='standard_car' route='W_S' depart='247.0' departLane='random' departSpeed='10' />
    <vehicle id='N_S_94' type='standard_car' route='N_S' depart='247.0' departLane='random' departSpeed='10' />
    <vehicle id='S_N_95' type='standard_car' route='S_N' depart='250.0' departLane='random' departSpeed='10' />
    <vehicle id='E_W_96' type='standard_car' route='E_W' depart='250.0' departLane='random' departSpeed='10' />
    <vehicle id='W_E_97' type='standard_car' route='W_E' depart='252.0' departLane='random' departSpeed='10' />
    <vehicle id='S_N_98' type='standard_car' route='S_N' depart='253.0' departLane='random' departSpeed='10' />
    <vehicle id='S_N_99' type='standard_car' route='S_N' depart='253.0' departLane='random' departSpeed='10' />
    <vehicle id='S_N_100' type='standard_car' route='S_N' depart='255.0' departLane='random' departSpeed='10' />
    <vehicle id='N_S_101' type='standard_car' route='N_S' depart='256.0' departLane='random' departSpeed='10' />
    <vehicle id='N_W_102' type='standard_car' route='N_W' depart='258.0' departLane='random' departSpeed='10' />
    <vehicle id='S_N_103' type='standard_car' route='S_N' depart='262.0' departLane='random' departSpeed='10' />
    <vehicle id='E_N_104' type='standard_car' route='E_N' depart='265.0' departLane='random' departSpeed='10' />
    <vehicle id='N_S_105' type='standard_car' route='N_S' depart='267.0' departLane='random' departSpeed='10' />
    <vehicle id='N_W_106' type='standard_car' route='N_W' depart='268.0' departLane='random' departSpeed='10' />
    <vehicle id='E_W_107' type='standard_car' route='E_W' depart='269.0' departLane='random' departSpeed='10' />
    <vehicle id='E_N_108' type='standard_car' route='E_N' depart='274.0' departLane='random' departSpeed='10' />
    <vehicle id='N_S_109' type='standard_car' route='N_S' depart='278.0' departLane='random' departSpeed='10' />
    <vehicle id='N_W_110' type='standard_car' route='N_W' depart='279.0' departLane='random' departSpeed='10' />
    <vehicle id='N_W_111' type='standard_car' route='N_W' depart='283.0' departLane='random' departSpeed='10' />
    <vehicle id='S_N_112' type='standard_car' route='S_N' depart='285.0' departLane='random' departSpeed='10' />
    <vehicle id='W_E_113' type='standard_car' route='W_E' depart='286.0' departLane='random' departSpeed='10' />
    <vehicle id='W_S_114' type='standard_car' route='W_S' depart='288.0' departLane='random' departSpeed='10' />
    <vehicle id='N_S_115' type='standard_car' route='N_S' depart='289.0' departLane='random' departSpeed='10' />
    <vehicle id='N_W_116' type='standard_car' route='N_W' depart='291.0' departLane='random' departSpeed='10' />
    <vehicle id='S_N_117' type='standard_car' route='S_N' depart='296.0' departLane='random' departSpeed='10' />
    <vehicle id='S_E_118' type='standard_car' route='S_E' depart='296.0' departLane='random' departSpeed='10' />
    <vehicle id='E_N_119' type='standard_car' route='E_N' depart='298.0' departLane='random' departSpeed='10' />
    <vehicle id='S_E_120' type='standard_car' route='S_E' depart='299.0' departLane='random' departSpeed='10' />
    <vehicle id='E_N_121' type='standard_car' route='E_N' depart='300.0' departLane='random' departSpeed='10' />
    <vehicle id='N_W_122' type='standard_car' route='N_W' depart='302.0' departLane='random' departSpeed='10' />
    <vehicle id='N_S_123' type='standard_car' route='N_S' depart='304.0' departLane='random' departSpeed='10' />
    <vehicle id='N_W_124' type='standard_car' route='N_W' depart='305.0' departLane='random' departSpeed='10' />
    <vehicle id='N_S_125' type='standard_car' route='N_S' depart='307.0' departLane='random' departSpeed='10' />
    <vehicle id='W_S_126' type='standard_car' route='W_S' depart='307.0' departLane='random' departSpeed='10' />
    <vehicle id='N_S_127' type='standard_car' route='N_S' depart='311.0' departLane='random' departSpeed='10' />
    <vehicle id='E_W_128' type='standard_car' route='E_W' depart='312.0' departLane='random' departSpeed='10' />
    <vehicle id='N_W_129' type='standard_car' route='N_W' depart='312.0' departLane='random' departSpeed='10' />
    <vehicle id='W_E_130' type='standard_car' route='W_E' depart='313.0' departLane='random' departSpeed='10' />
    <vehicle id='S_N_131' type='standard_car' route='S_N' depart='313.0' departLane='random' departSpeed='10' />
    <vehicle id='N_S_132' type='standard_car' route='N_S' depart='315.0' departLane='random' departSpeed='10' />
    <vehicle id='E_W_133' type='standard_car' route='E_W' depart='316.0' departLane='random' departSpeed='10' />
    <vehicle id='N_S_134' type='standard_car' route='N_S' depart='317.0' departLane='random' departSpeed='10' />
    <vehicle id='E_W_135' type='standard_car' route='E_W' depart='321.0' departLane='random' departSpeed='10' />
    <vehicle id='E_N_136' type='standard_car' route='E_N' depart='321.0' departLane='random' departSpeed='10' />
    <vehicle id='S_N_137' type='standard_car' route='S_N' depart='322.0' departLane='random' departSpeed='10' />
    <vehicle id='E_N_138' type='standard_car' route='E_N' depart='323.0' departLane='random' departSpeed='10' />
    <vehicle id='S_N_139' type='standard_car' route='S_N' depart='328.0' departLane='random' departSpeed='10' />
    <vehicle id='N_S_140' type='standard_car' route='N_S' depart='328.0' departLane='random' departSpeed='10' />
    <vehicle id='N_W_141' type='standard_car' route='N_W' depart='328.0' departLane='random' departSpeed='10' />
    <vehicle id='S_N_142' type='standard_car' route='S_N' depart='328.0' departLane='random' departSpeed='10' />
    <vehicle id='N_S_143' type='standard_car' route='N_S' depart='330.0' departLane='random' departSpeed='10' />
    <vehicle id='E_W_144' type='standard_car' route='E_W' depart='330.0' departLane='random' departSpeed='10' />
    <vehicle id='N_S_145' type='standard_car' route='N_S' depart='331.0' departLane='random' departSpeed='10' />
    <vehicle id='S_N_146' type='standard_car' route='S_N' depart='334.0' departLane='random' departSpeed='10' />
    <vehicle id='S_E_147' type='standard_car' route='S_E' depart='334.0' departLane='random' departSpeed='10' />
    <vehicle id='N_S_148' type='standard_car' route='N_S' depart='335.0' departLane='random' departSpeed='10' />
    <vehicle id='N_S_149' type='standard_car' route='N_S' depart='335.0' departLane='random' departSpeed='10' />
    <vehicle id='N_W_150' type='standard_car' route='N_W' depart='341.0' departLane='random' departSpeed='10' />
    <vehicle id='W_E_151' type='standard_car' route='W_E' depart='345.0' departLane='random' departSpeed='10' />
    <vehicle id='N_S_152' type='standard_car' route='N_S' depart='353.0' departLane='random' departSpeed='10' />
    <vehicle id='S_E_153' type='standard_car' route='S_E' depart='356.0' departLane='random' departSpeed='10' />
    <vehicle id='N_S_154' type='standard_car' route='N_S' depart='356.0' departLane='random' departSpeed='10' />
    <vehicle id='W_E_155' type='standard_car' route='W_E' depart='357.0' departLane='random' departSpeed='10' />
    <vehicle id='N_W_156' type='standard_car' route='N_W' depart='358.0' departLane='random' departSpeed='10' />
    <vehicle id='W_E_157' type='standard_car' route='W_E' depart='358.0' departLane='random' departSpeed='10' />
    <vehicle id='S_E_158' type='standard_car' route='S_E' depart='360.0' departLane='random' departSpeed='10' />
    <vehicle id='S_N_159' type='standard_car' route='S_N' depart='365.0' departLane='random' departSpeed='10' />
    <vehicle id='E_N_160' type='standard_car' route='E_N' depart='367.0' departLane='random' departSpeed='10' />
    <vehicle id='E_W_161' type='standard_car' route='E_W' depart='367.0' departLane='random' departSpeed='10' />
    <vehicle id='W_E_162' type='standard_car' route='W_E' depart='367.0' departLane='random' departSpeed='10' />
    <vehicle id='S_N_163' type='standard_car' route='S_N' depart='368.0' departLane='random' departSpeed='10' />
    <vehicle id='N_S_164' type='standard_car' route='N_S' depart='371.0' departLane='random' departSpeed='10' />
    <vehicle id='N_W_165' type='standard_car' route='N_W' depart='373.0' departLane='random' departSpeed='10' />
    <vehicle id='W_E_166' type='standard_car' route='W_E' depart='377.0' departLane='random' departSpeed='10' />
    <vehicle id='W_E_167' type='standard_car' route='W_E' depart='379.0' departLane='random' departSpeed='10' />
    <vehicle id='E_N_168' type='standard_car' route='E_N' depart='381.0' departLane='random' departSpeed='10' />
    <vehicle id='N_W_169' type='standard_car' route='N_W' depart='381.0' departLane='random' departSpeed='10' />
    <vehicle id='W_E_170' type='standard_car' route='W_E' depart='382.0' departLane='random' departSpeed='10' />
    <vehicle id='S_N_171' type='standard_car' route='S_N' depart='382.0' departLane='random' departSpeed='10' />
    <vehicle id='W_E_172' type='standard_car' route='W_E' depart='382.0' departLane='random' departSpeed='10' />
    <vehicle id='E_N_173' type='standard_car' route='E_N' depart='382.0' departLane='random' departSpeed='10' />
    <vehicle id='S_E_174' type='standard_car' route='S_E' depart='384.0' departLane='random' departSpeed='10' />
    <vehicle id='S_N_175' type='standard_car' route='S_N' depart='385.0' departLane='random' departSpeed='10' />
    <vehicle id='E_N_176' type='standard_car' route='E_N' depart='387.0' departLane='random' departSpeed='10' />
    <vehicle id='S_N_177' type='standard_car' route='S_N' depart='389.0' departLane='random' departSpeed='10' />
    <vehicle id='N_W_178' type='standard_car' route='N_W' depart='389.0' departLane='random' departSpeed='10' />
    <vehicle id='W_E_179' type='standard_car' route='W_E' depart='390.0' departLane='random' departSpeed='10' />
    <vehicle id='S_N_180' type='standard_car' route='S_N' depart='391.0' departLane='random' departSpeed='10' />
    <vehicle id='S_E_181' type='standard_car' route='S_E' depart='391.0' departLane='random' departSpeed='10' />
    <vehicle id='S_N_182' type='standard_car' route='S_N' depart='391.0' departLane='random' departSpeed='10' />
    <vehicle id='E_W_183' type='standard_car' route='E_W' depart='392.0' departLane='random' departSpeed='10' />
    <vehicle id='W_E_184' type='standard_car' route='W_E' depart='393.0' departLane='random' departSpeed='10' />
    <vehicle id='S_N_185' type='standard_car' route='S_N' depart='394.0' departLane='random' departSpeed='10' />
    <vehicle id='N_S_186' type='standard_car' route='N_S' depart='395.0' departLane='random' departSpeed='10' />
    <vehicle id='W_E_187' type='standard_car' route='W_E' depart='400.0' departLane='random' departSpeed='10' />
    <vehicle id='W_E_188' type='standard_car' route='W_E' depart='401.0' departLane='random' departSpeed='10' />
    <vehicle id='N_S_189' type='standard_car' route='N_S' depart='402.0' departLane='random' departSpeed='10' />
    <vehicle id='W_S_190' type='standard_car' route='W_S' depart='402.0' departLane='random' departSpeed='10' />
    <vehicle id='N_S_191' type='standard_car' route='N_S' depart='403.0' departLane='random' departSpeed='10' />
    <vehicle id='E_W_192' type='standard_car' route='E_W' depart='404.0' departLane='random' departSpeed='10' />
    <vehicle id='S_N_193' type='standard_car' route='S_N' depart='404.0' departLane='random' departSpeed='10' />
    <vehicle id='W_E_194' type='standard_car' route='W_E' depart='404.0' departLane='random' departSpeed='10' />
    <vehicle id='E_W_195' type='standard_car' route='E_W' depart='406.0' departLane='random' departSpeed='10' />
    <vehicle id='E_W_196' type='standard_car' route='E_W' depart='406.0' departLane='random' departSpeed='10' />
    <vehicle id='N_S_197' type='standard_car' route='N_S' depart='408.0' departLane='random' departSpeed='10' />
    <vehicle id='E_N_198' type='standard_car' route='E_N' depart='411.0' departLane='random' departSpeed='10' />
    <vehicle id='W_S_199' type='standard_car' route='W_S' depart='412.0' departLane='random' departSpeed='10' />
    <vehicle id='W_E_200' type='standard_car' route='W_E' depart='415.0' departLane='random' departSpeed='10' />
    <vehicle id='E_N_201' type='standard_car' route='E_N' depart='417.0' departLane='random' departSpeed='10' />
    <vehicle id='E_N_202' type='standard_car' route='E_N' depart='418.0' departLane='random' departSpeed='10' />
    <vehicle id='W_S_203' type='standard_car' route='W_S' depart='419.0' departLane='random' departSpeed='10' />
    <vehicle id='W_E_204' type='standard_car' route='W_E' depart='419.0' departLane='random' departSpeed='10' />
    <vehicle id='N_S_205' type='standard_car' route='N_S' depart='422.0' departLane='random' departSpeed='10' />
    <vehicle id='S_N_206' type='standard_car' route='S_N' depart='422.0' departLane='random' departSpeed='10' />
    <vehicle id='E_W_207' type='standard_car' route='E_W' depart='423.0' departLane='random' departSpeed='10' />
    <vehicle id='S_E_208' type='standard_car' route='S_E' depart='423.0' departLane='random' departSpeed='10' />
    <vehicle id='E_N_209' type='standard_car' route='E_N' depart='423.0' departLane='random' departSpeed='10' />
    <vehicle id='N_W_210' type='standard_car' route='N_W' depart='424.0' departLane='random' departSpeed='10' />
    <vehicle id='S_N_211' type='standard_car' route='S_N' depart='425.0' departLane='random' departSpeed='10' />
    <vehicle id='E_W_212' type='standard_car' route='E_W' depart='425.0' departLane='random' departSpeed='10' />
    <vehicle id='S_N_213' type='standard_car' route='S_N' depart='425.0' departLane='random' departSpeed='10' />
    <vehicle id='E_W_214' type='standard_car' route='E_W' depart='431.0' departLane='random' departSpeed='10' />
    <vehicle id='N_W_215' type='standard_car' route='N_W' depart='431.0' departLane='random' departSpeed='10' />
    <vehicle id='N_S_216' type='standard_car' route='N_S' depart='432.0' departLane='random' departSpeed='10' />
    <vehicle id='W_S_217' type='standard_car' route='W_S' depart='432.0' departLane='random' departSpeed='10' />
    <vehicle id='E_N_218' type='standard_car' route='E_N' depart='434.0' departLane='random' departSpeed='10' />
    <vehicle id='E_W_219' type='standard_car' route='E_W' depart='434.0' departLane='random' departSpeed='10' />
    <vehicle id='E_W_220' type='standard_car' route='E_W' depart='434.0' departLane='random' departSpeed='10' />
    <vehicle id='N_W_221' type='standard_car' route='N_W' depart='435.0' departLane='random' departSpeed='10' />
    <vehicle id='E_W_222' type='standard_car' route='E_W' depart='437.0' departLane='random' departSpeed='10' />
    <vehicle id='N_S_223' type='standard_car' route='N_S' depart='438.0' departLane='random' departSpeed='10' />
    <vehicle id='S_E_224' type='standard_car' route='S_E' depart='438.0' departLane='random' departSpeed='10' />
    <vehicle id='E_W_225' type='standard_car' route='E_W' depart='439.0' departLane='random' departSpeed='10' />
    <vehicle id='S_N_226' type='standard_car' route='S_N' depart='440.0' departLane='random' departSpeed='10' />
    <vehicle id='S_N_227' type='standard_car' route='S_N' depart='440.0' departLane='random' departSpeed='10' />
    <vehicle id='E_N_228' type='standard_car' route='E_N' depart='440.0' departLane='random' departSpeed='10' />
    <vehicle id='N_S_229' type='standard_car' route='N_S' depart='441.0' departLane='random' departSpeed='10' />
    <vehicle id='S_E_230' type='standard_car' route='S_E' depart='444.0' departLane='random' departSpeed='10' />
    <vehicle id='S_E_231' type='standard_car' route='S_E' depart='445.0' departLane='random' departSpeed='10' />
    <vehicle id='W_E_232' type='standard_car' route='W_E' depart='445.0' departLane='random' departSpeed='10' />
    <vehicle id='S_E_233' type='standard_car' route='S_E' depart='448.0' departLane='random' departSpeed='10' />
    <vehicle id='N_W_234' type='standard_car' route='N_W' depart='449.0' departLane='random' departSpeed='10' />
    <vehicle id='S_N_235' type='standard_car' route='S_N' depart='449.0' departLane='random' departSpeed='10' />
    <vehicle id='W_E_236' type='standard_car' route='W_E' depart='449.0' departLane='random' departSpeed='10' />
    <vehicle id='E_N_237' type='standard_car' route='E_N' depart='452.0' departLane='random' departSpeed='10' />
    <vehicle id='E_N_238' type='standard_car' route='E_N' depart='452.0' departLane='random' departSpeed='10' />
    <vehicle id='N_S_239' type='standard_car' route='N_S' depart='453.0' departLane='random' departSpeed='10' />
    <vehicle id='N_S_240' type='standard_car' route='N_S' depart='453.0' departLane='random' departSpeed='10' />
    <vehicle id='S_E_241' type='standard_car' route='S_E' depart='455.0' departLane='random' departSpeed='10' />
    <vehicle id='N_S_242' type='standard_car' route='N_S' depart='455.0' departLane='random' departSpeed='10' />
    <vehicle id='E_W_243' type='standard_car' route='E_W' depart='458.0' departLane='random' departSpeed='10' />
    <vehicle id='W_S_244' type='standard_car' route='W_S' depart='459.0' departLane='random' departSpeed='10' />
    <vehicle id='E_W_245' type='standard_car' route='E_W' depart='459.0' departLane='random' departSpeed='10' />
    <vehicle id='N_W_246' type='standard_car' route='N_W' depart='459.0' departLane='random' departSpeed='10' />
    <vehicle id='E_W_247' type='standard_car' route='E_W' depart='459.0' departLane='random' departSpeed='10' />
    <vehicle id='E_W_248' type='standard_car' route='E_W' depart='460.0' departLane='random' departSpeed='10' />
    <vehicle id='S_E_249' type='standard_car' route='S_E' depart='460.0' departLane='random' departSpeed='10' />
    <vehicle id='E_W_250' type='standard_car' route='E_W' depart='464.0' departLane='random' departSpeed='10' />
    <vehicle id='W_E_251' type='standard_car' route='W_E' depart='466.0' departLane='random' departSpeed='10' />
    <vehicle id='E_W_252' type='standard_car' route='E_W' depart='466.0' departLane='random' departSpeed='10' />
    <vehicle id='S_N_253' type='standard_car' route='S_N' depart='467.0' departLane='random' departSpeed='10' />
    <vehicle id='N_W_254' type='standard_car' route='N_W' depart='469.0' departLane='random' departSpeed='10' />
    <vehicle id='W_E_255' type='standard_car' route='W_E' depart='470.0' departLane='random' departSpeed='10' />
    <vehicle id='N_W_256' type='standard_car' route='N_W' depart='471.0' departLane='random' departSpeed='10' />
    <vehicle id='S_N_257' type='standard_car' route='S_N' depart='472.0' departLane='random' departSpeed='10' />
    <vehicle id='S_N_258' type='standard_car' route='S_N' depart='472.0' departLane='random' departSpeed='10' />
    <vehicle id='N_W_259' type='standard_car' route='N_W' depart='472.0' departLane='random' departSpeed='10' />