<routes>
    <vType id="standard_car" length="5.0" maxSpeed="15" minGap="2.5" accel="2.0" decel="4.5" />
    <route id="N_S" edges="road_1_2_3 road_1_1_3"/>
    <route id="N_E" edges="road_1_2_3 road_1_1_0"/>
    <route id="N_W" edges="road_1_2_3 road_1_1_2"/>
    <route id="S_W" edges="road_1_0_1 road_1_1_2"/>
    <route id="S_E" edges="road_1_0_1 road_1_1_0"/>
    <route id="S_N" edges="road_1_0_1 road_1_1_1"/>

    <route id="W_E" edges="road_0_1_0 road_1_1_0"/>
    <route id="W_N" edges="road_0_1_0 road_1_1_1"/>
    <route id="W_S" edges="road_0_1_0 road_1_1_3"/>
    <route id="E_N" edges="road_2_1_2 road_1_1_1"/>
    <route id="E_S" edges="road_2_1_2 road_1_1_3"/>
    <route id="E_W" edges="road_2_1_2 road_1_1_2"/>
            
    <vehicle id='W_E_0' type='standard_car' route='W_E' depart='3.0' departLane='random' departSpeed='10' />
    <vehicle id='W_E_1' type='standard_car' route='W_E' depart='25.0' departLane='random' departSpeed='10' />
    <vehicle id='S_E_2' type='standard_car' route='S_E' depart='31.0' departLane='random' departSpeed='10' />
    <vehicle id='N_S_3' type='standard_car' route='N_S' depart='35.0' departLane='random' departSpeed='10' />
    <vehicle id='N_W_4' type='standard_car' route='N_W' depart='40.0' departLane='random' departSpeed='10' />
    <vehicle id='W_S_5' type='standard_car' route='W_S' depart='46.0' departLane='random' departSpeed='10' />
    <vehicle id='S_N_6' type='standard_car' route='S_N' depart='57.0' departLane='random' departSpeed='10' />
    <vehicle id='E_N_7' type='standard_car' route='E_N' depart='58.0' departLane='random' departSpeed='10' />
    <vehicle id='E_W_8' type='standard_car' route='E_W' depart='66.0' departLane='random' departSpeed='10' />
    <vehicle id='N_S_9' type='standard_car' route='N_S' depart='70.0' departLane='random' departSpeed='10' />
    <vehicle id='S_N_10' type='standard_car' route='S_N' depart='73.0' departLane='random' departSpeed='10' />
    <vehicle id='S_E_11' type='standard_car' route='S_E' depart='74.0' departLane='random' departSpeed='10' />
    <vehicle id='N_S_12' type='standard_car' route='N_S' depart='75.0' departLane='random' departSpeed='10' />
    <vehicle id='E_W_13' type='standard_car' route='E_W' depart='78.0' departLane='random' departSpeed='10' />
    <vehicle id='N_W_14' type='standard_car' route='N_W' depart='88.0' departLane='random' departSpeed='10' />
    <vehicle id='N_S_15' type='standard_car' route='N_S' depart='96.0' departLane='random' departSpeed='10' />
    <vehicle id='N_S_16' type='standard_car' route='N_S' depart='99.0' departLane='random' departSpeed='10' />
    <vehicle id='S_N_17' type='standard_car' route='S_N' depart='100.0' departLane='random' departSpeed='10' />
    <vehicle id='S_E_18' type='standard_car' route='S_E' depart='101.0' departLane='random' departSpeed='10' />
    <vehicle id='N_W_19' type='standard_car' route='N_W' depart='102.0' departLane='random' departSpeed='10' />
    <vehicle id='E_N_20' type='standard_car' route='E_N' depart='103.0' departLane='random' departSpeed='10' />
    <vehicle id='N_W_21' type='standard_car' route='N_W' depart='104.0' departLane='random' departSpeed='10' />
    <vehicle id='E_N_22' type='standard_car' route='E_N' depart='108.0' departLane='random' departSpeed='10' />
    <vehicle id='N_S_23' type='standard_car' route='N_S' depart='108.0' departLane='random' departSpeed='10' />
    <vehicle id='N_W_24' type='standard_car' route='N_W' depart='109.0' departLane='random' departSpeed='10' />
    <vehicle id='N_S_25' type='standard_car' route='N_S' depart='110.0' departLane='random' departSpeed='10' />
    <vehicle id='N_S_26' type='standard_car' route='N_S' depart='111.0' departLane='random' departSpeed='10' />
    <vehicle id='S_N_27' type='standard_car' route='S_N' depart='113.0' departLane='random' departSpeed='10' />
    <vehicle id='E_W_28' type='standard_car' route='E_W' depart='114.0' departLane='random' departSpeed='10' />
    <vehicle id='N_S_29' type='standard_car' route='N_S' depart='114.0' departLane='random' departSpeed='10' />
    <vehicle id='E_N_30' type='standard_car' route='E_N' depart='116.0' departLane='random' departSpeed='10' />
    <vehicle id='W_E_31' type='standard_car' route='W_E' depart='117.0' departLane='random' departSpeed='10' />
    <vehicle id='E_W_32' type='standard_car' route='E_W' depart='119.0' departLane='random' departSpeed='10' />
    <vehicle id='S_N_33' type='standard_car' route='S_N' depart='121.0' departLane='random' departSpeed='10' />
    <vehicle id='S_N_34' type='standard_car' route='S_N' depart='122.0' departLane='random' departSpeed='10' />
    <vehicle id='E_W_35' type='standard_car' route='E_W' depart='122.0' departLane='random' departSpeed='10' />
    <vehicle id='N_S_36' type='standard_car' route='N_S' depart='129.0' departLane='random' departSpeed='10' />
    <vehicle id='N_S_37' type='standard_car' route='N_S' depart='132.0' departLane='random' departSpeed='10' />
    <vehicle id='S_E_38' type='standard_car' route='S_E' depart='133.0' departLane='random' departSpeed='10' />
    <vehicle id='E_W_39' type='standard_car' route='E_W' depart='133.0' departLane='random' departSpeed='10' />
    <vehicle id='S_E_40' type='standard_car' route='S_E' depart='133.0' departLane='random' departSpeed='10' />
    <vehicle id='W_E_41' type='standard_car' route='W_E' depart='134.0' departLane='random' departSpeed='10' />
    <vehicle id='N_S_42' type='standard_car' route='N_S' depart='136.0' departLane='random' departSpeed='10' />
    <vehicle id='S_N_43' type='standard_car' route='S_N' depart='139.0' departLane='random' departSpeed='10' />
    <vehicle id='E_W_44' type='standard_car' route='E_W' depart='141.0' departLane='random' departSpeed='10' />
    <vehicle id='W_E_45' type='standard_car' route='W_E' depart='143.0' departLane='random' departSpeed='10' />
    <vehicle id='S_N_46' type='standard_car' route='S_N' depart='144.0' departLane='random' departSpeed='10' />
    <vehicle id='N_S_47' type='standard_car' route='N_S' depart='145.0' departLane='random' departSpeed='10' />
    <vehicle id='S_N_48' type='standard_car' route='S_N' depart='147.0' departLane='random' departSpeed='10' />
    <vehicle id='E_N_49' type='standard_car' route='E_N' depart='148.0' departLane='random' departSpeed='10' />
    <vehicle id='E_W_50' type='standard_car' route='E_W' depart='150.0' departLane='random' departSpeed='10' />
    <vehicle id='N_S_51' type='standard_car' route='N_S' depart='150.0' departLane='random' departSpeed='10' />
    <vehicle id='N_S_52' type='standard_car' route='N_S' depart='153.0' departLane='random' departSpeed='10' />
    <vehicle id='N_S_53' type='standard_car' route='N_S' depart='153.0' departLane='random' departSpeed='10' />
    <vehicle id='S_N_54' type='standard_car' route='S_N' depart='155.0' departLane='random' departSpeed='10' />
    <vehicle id='W_E_55' type='standard_car' route='W_E' depart='155.0' departLane='random' departSpeed='10' />
    <vehicle id='S_E_56' type='standard_car' route='S_E' depart='161.0' departLane='random' departSpeed='10' />
    <vehicle id='W_E_57' type='standard_car' route='W_E' depart='164.0' departLane='random' departSpeed='10' />
    <vehicle id='W_S_58' type='standard_car' route='W_S' depart='164.0' departLane='random' departSpeed='10' />
    <vehicle id='W_S_59' type='standard_car' route='W_S' depart='164.0' departLane='random' departSpeed='10' />
    <vehicle id='E_W_60' type='standard_car' route='E_W' depart='165.0' departLane='random' departSpeed='10' />
    <vehicle id='W_E_61' type='standard_car' route='W_E' depart='167.0' departLane='random' departSpeed='10' />
    <vehicle id='E_N_62' type='standard_car' route='E_N' depart='167.0' departLane='random' departSpeed='10' />
    <vehicle id='W_S_63' type='standard_car' route='W_S' depart='168.0' departLane='random' departSpeed='10' />
    <vehicle id='W_E_64' type='standard_car' route='W_E' depart='169.0' departLane='random' departSpeed='10' />
    <vehicle id='W_S_65' type='standard_car' route='W_S' depart='170.0' departLane='random' departSpeed='10' />
    <vehicle id='E_W_66' type='standard_car' route='E_W' depart='170.0' departLane='random' departSpeed='10' />
    <vehicle id='W_E_67' type='standard_car' route='W_E' depart='172.0' departLane='random' departSpeed='10' />
    <vehicle id='S_E_68' type='standard_car' route='S_E' depart='173.0' departLane='random' departSpeed='10' />
    <vehicle id='N_S_69' type='standard_car' route='N_S' depart='173.0' departLane='random' departSpeed='10' />
    <vehicle id='E_W_70' type='standard_car' route='E_W' depart='173.0' departLane='random' departSpeed='10' />
    <vehicle id='E_W_71' type='standard_car' route='E_W' depart='174.0' departLane='random' departSpeed='10' />
    <vehicle id='N_W_72' type='standard_car' route='N_W' depart='175.0' departLane='random' departSpeed='10' />
    <vehicle id='N_W_73' type='standard_car' route='N_W' depart='177.0' departLane='random' departSpeed='10' />
    <vehicle id='S_E_74' type='standard_car' route='S_E' depart='178.0' departLane='random' departSpeed='10' />
    <vehicle id='E_W_75' type='standard_car' route='E_W' depart='178.0' departLane='random' departSpeed='10' />
    <vehicle id='N_W_76' type='standard_car' route='N_W' depart='180.0' departLane='random' departSpeed='10' />
    <vehicle id='W_E_77' type='standard_car' route='W_E' depart='183.0' departLane='random' departSpeed='10' />
    <vehicle id='E_W_78' type='standard_car' route='E_W' depart='183.0' departLane='random' departSpeed='10' />
    <vehicle id='W_S_79' type='standard_car' route='W_S' depart='184.0' departLane='random' departSpeed='10' />
    <vehicle id='E_N_80' type='standard_car' route='E_N' depart='186.0' departLane='random' departSpeed='10' />
    <vehicle id='S_E_81' type='standard_car' route='S_E' depart='187.0' departLane='random' departSpeed='10' />
    <vehicle id='N_W_82' type='standard_car' route='N_W' depart='189.0' departLane='random' departSpeed='10' />
    <vehicle id='N_W_83' type='standard_car' route='N_W' depart='191.0' departLane='random' departSpeed='10' />
    <vehicle id='E_W_84' type='standard_car' route='E_W' depart='191.0' departLane='random' departSpeed='10' />
    <vehicle id='E_W_85' type='standard_car' route='E_W' depart='192.0' departLane='random' departSpeed='10' />
    <vehicle id='S_E_86' type='standard_car' route='S_E' depart='200.0' departLane='random' departSpeed='10' />
    <vehicle id='N_S_87' type='standard_car' route='N_S' depart='200.0' departLane='random' departSpeed='10' />
    <vehicle id='N_W_88' type='standard_car' route='N_W' depart='201.0' departLane='random' departSpeed='10' />
    <vehicle id='N_S_89' type='standard_car' route='N_S' depart='203.0' departLane='random' departSpeed='10' />
    <vehicle id='S_E_90' type='standard_car' route='S_E' depart='204.0' departLane='random' departSpeed='10' />
    <vehicle id='E_N_91' type='standard_car' route='E_N' depart='205.0' departLane='random' departSpeed='10' />
    <vehicle id='E_W_92' type='standard_car' route='E_W' depart='206.0' departLane='random' departSpeed='10' />
    <vehicle id='N_W_93' type='standard_car' route='N_W' depart='209.0' departLane='random' departSpeed='10' />
    <vehicle id='N_S_94' type='standard_car' route='N_S' depart='210.0' departLane='random' departSpeed='10' />
    <vehicle id='E_N_95' type='standard_car' route='E_N' depart='212.0' departLane='random' departSpeed='10' />
    <vehicle id='W_S_96' type='standard_car' route='W_S' depart='212.0' departLane='random' departSpeed='10' />
    <vehicle id='N_W_97' type='standard_car' route='N_W' depart='212.0' departLane='random' departSpeed='10' />
    <vehicle id='W_E_98' type='standard_car' route='W_E' depart='212.0' departLane='random' departSpeed='10' />
    <vehicle id='E_N_99' type='standard_car' route='E_N' depart='212.0' departLane='random' departSpeed='10' />
    <vehicle id='N_S_100' type='standard_car' route='N_S' depart='213.0' departLane='random' departSpeed='10' />
    <vehicle id='N_W_101' type='standard_car' route='N_W' depart='213.0' departLane='random' departSpeed='10' />
    <vehicle id='E_N_102' type='standard_car' route='E_N' depart='214.0' departLane='random' departSpeed='10' />
    <vehicle id='E_W_103' type='standard_car' route='E_W' depart='214.0' departLane='random' departSpeed='10' />
    <vehicle id='N_S_104' type='standard_car' route='N_S' depart='215.0' departLane='random' departSpeed='10' />
    <vehicle id='S_E_105' type='standard_car' route='S_E' depart='221.0' departLane='random' departSpeed='10' />
    <vehicle id='S_N_106' type='standard_car' route='S_N' depart='222.0' departLane='random' departSpeed='10' />
    <vehicle id='E_N_107' type='standard_car' route='E_N' depart='223.0' departLane='random' departSpeed='10' />
    <vehicle id='W_E_108' type='standard_car' route='W_E' depart='223.0' departLane='random' departSpeed='10' />
    <vehicle id='S_N_109' type='standard_car' route='S_N' depart='224.0' departLane='random' departSpeed='10' />
    <vehicle id='E_N_110' type='standard_car' route='E_N' depart='225.0' departLane='random' departSpeed='10' />
    <vehicle id='N_W_111' type='standard_car' route='N_W' depart='227.0' departLane='random' departSpeed='10' />
    <vehicle id='N_W_112' type='standard_car' route='N_W' depart='229.0' departLane='random' departSpeed='10' />
    <vehicle id='W_S_113' type='standard_car' route='W_S' depart='229.0' departLane='random' departSpeed='10' />
    <vehicle id='E_W_114' type='standard_car' route='E_W' depart='230.0' departLane='random' departSpeed='10' />
    <vehicle id='W_S_115' type='standard_car' route='W_S' depart='231.0' departLane='random' departSpeed='10' />
    <vehicle id='W_E_116' type='standard_car' route='W_E' depart='231.0' departLane='random' departSpeed='10' />
    <vehicle id='E_N_117' type='standard_car' route='E_N' depart='231.0' departLane='random' departSpeed='10' />
    <vehicle id='S_N_118' type='standard_car' route='S_N' depart='234.0' departLane='random' departSpeed='10' />
    <vehicle id='N_W_119' type='standard_car' route='N_W' depart='235.0' departLane='random' departSpeed='10' />
    <vehicle id='W_E_120' type='standard_car' route='W_E' depart='236.0' departLane='random' departSpeed='10' />
    <vehicle id='S_E_121' type='standard_car' route='S_E' depart='236.0' departLane='random' departSpeed='10' />
    <vehicle id='N_S_122' type='standard_car' route='N_S' depart='238.0' departLane='random' departSpeed='10' />
    <vehicle id='S_E_123' type='standard_car' route='S_E' depart='238.0' departLane='random' departSpeed='10' />
    <vehicle id='E_N_124' type='standard_car' route='E_N' depart='238.0' departLane='random' departSpeed='10' />
    <vehicle id='W_E_125' type='standard_car' route='W_E' depart='238.0' departLane='random' departSpeed='10' />
    <vehicle id='E_N_126' type='standard_car' route='E_N' depart='239.0' departLane='random' departSpeed='10' />
    <vehicle id='N_W_127' type='standard_car' route='N_W' depart='240.0' departLane='random' departSpeed='10' />
    <vehicle id='W_S_128' type='standard_car' route='W_S' depart='240.0' departLane='random' departSpeed='10' />
    <vehicle id='N_W_129' type='standard_car' route='N_W' depart='241.0' departLane='random' departSpeed='10' />
    <vehicle id='N_S_130' type='standard_car' route='N_S' depart='241.0' departLane='random' departSpeed='10' />
    <vehicle id='W_S_131' type='standard_car' route='W_S' depart='243.0' departLane='random' departSpeed='10' />
    <vehicle id='S_E_132' type='standard_car' route='S_E' depart='246.0' departLane='random' departSpeed='10' />
    <vehicle id='E_N_133' type='standard_car' route='E_N' depart='247.0' departLane='random' departSpeed='10' />
    <vehicle id='S_N_134' type='standard_car' route='S_N' depart='247.0' departLane='random' departSpeed='10' />
    <vehicle id='W_S_135' type='standard_car' route='W_S' depart='248.0' departLane='random' departSpeed='10' />
    <vehicle id='S_N_136' type='standard_car' route='S_N' depart='250.0' departLane='random' departSpeed='10' />
    <vehicle id='W_E_137' type='standard_car' route='W_E' depart='252.0' departLane='random' departSpeed='10' />
    <vehicle id='W_E_138' type='standard_car' route='W_E' depart='253.0' departLane='random' departSpeed='10' />
    <vehicle id='E_N_139' type='standard_car' route='E_N' depart='253.0' departLane='random' departSpeed='10' />
    <vehicle id='E_W_140' type='standard_car' route='E_W' depart='255.0' departLane='random' departSpeed='10' />
    <vehicle id='S_N_141' type='standard_car' route='S_N' depart='257.0' departLane='random' departSpeed='10' />
    <vehicle id='S_E_142' type='standard_car' route='S_E' depart='258.0' departLane='random' departSpeed='10' />
    <vehicle id='W_E_143' type='standard_car' route='W_E' depart='259.0' departLane='random' departSpeed='10' />
    <vehicle id='S_E_144' type='standard_car' route='S_E' depart='260.0' departLane='random' departSpeed='10' />
    <vehicle id='N_S_145' type='standard_car' route='N_S' depart='261.0' departLane='random' departSpeed='10' />
    <vehicle id='E_N_146' type='standard_car' route='E_N' depart='261.0' departLane='random' departSpeed='10' />
    <vehicle id='S_N_147' type='standard_car' route='S_N' depart='262.0' departLane='random' departSpeed='10' />
    <vehicle id='N_W_148' type='standard_car' route='N_W' depart='263.0' departLane='random' departSpeed='10' />
    <vehicle id='E_N_149' type='standard_car' route='E_N' depart='263.0' departLane='random' departSpeed='10' />
    <vehicle id='E_W_150' type='standard_car' route='E_W' depart='267.0' departLane='random' departSpeed='10' />
    <vehicle id='S_E_151' type='standard_car' route='S_E' depart='268.0' departLane='random' departSpeed='10' />
    <vehicle id='W_S_152' type='standard_car' route='W_S' depart='271.0' departLane='random' departSpeed='10' />
    <vehicle id='E_N_153' type='standard_car' route='E_N' depart='272.0' departLane='random' departSpeed='10' />
    <vehicle id='E_W_154' type='standard_car' route='E_W' depart='274.0' departLane='random' departSpeed='10' />
    <vehicle id='S_E_155' type='standard_car' route='S_E' depart='275.0' departLane='random' departSpeed='10' />
    <vehicle id='S_E_156' type='standard_car' route='S_E' depart='276.0' departLane='random' departSpeed='10' />
    <vehicle id='E_N_157' type='standard_car' route='E_N' depart='276.0' departLane='random' departSpeed='10' />
    <vehicle id='W_S_158' type='standard_car' route='W_S' depart='278.0' departLane='random' departSpeed='10' />
    <vehicle id='W_S_159' type='standard_car' route='W_S' depart='278.0' departLane='random' departSpeed='10' />
    <vehicle id='W_E_160' type='standard_car' route='W_E' depart='280.0' departLane='random' departSpeed='10' />
    <vehicle id='W_S_161' type='standard_car' route='W_S' depart='280.0' departLane='random' departSpeed='10' />
    <vehicle id='W_E_162' type='standard_car' route='W_E' depart='282.0' departLane='random' departSpeed='10' />
    <vehicle id='E_W_163' type='standard_car' route='E_W' depart='283.0' departLane='random' departSpeed='10' />
    <vehicle id='W_E_164' type='standard_car' route='W_E' depart='283.0' departLane='random' departSpeed='10' />
    <vehicle id='E_N_165' type='standard_car' route='E_N' depart='284.0' departLane='random' departSpeed='10' />
    <vehicle id='N_S_166' type='standard_car' route='N_S' depart='284.0' departLane='random' departSpeed='10' />
    <vehicle id='W_E_167' type='standard_car' route='W_E' depart='284.0' departLane='random' departSpeed='10' />
    <vehicle id='N_W_168' type='standard_car' route='N_W' depart='288.0' departLane='random' departSpeed='10' />
    <vehicle id='E_N_169' type='standard_car' route='E_N' depart='288.0' departLane='random' departSpeed='10' />
    <vehicle id='E_W_170' type='standard_car' route='E_W' depart='288.0' departLane='random' departSpeed='10' />
    <vehicle id='W_S_171' type='standard_car' route='W_S' depart='289.0' departLane='random' departSpeed='10' />
    <vehicle id='S_E_172' type='standard_car' route='S_E' depart='289.0' departLane='random' departSpeed='10' />
    <vehicle id='N_W_173' type='standard_car' route='N_W' depart='291.0' departLane='random' departSpeed='10' />
    <vehicle id='S_E_174' type='standard_car' route='S_E' depart='291.0' departLane='random' departSpeed='10' />
    <vehicle id='E_W_175' type='standard_car' route='E_W' depart='291.0' departLane='random' departSpeed='10' />
    <vehicle id='E_N_176' type='standard_car' route='E_N' depart='291.0' departLane='random' departSpeed='10' />
    <vehicle id='E_W_177' type='standard_car' route='E_W' depart='291.0' departLane='random' departSpeed='10' />
    <vehicle id='E_W_178' type='standard_car' route='E_W' depart='293.0' departLane='random' departSpeed='10' />
    <vehicle id='W_E_179' type='standard_car' route='W_E' depart='293.0' departLane='random' departSpeed='10' />
    <vehicle id='S_N_180' type='standard_car' route='S_N' depart='294.0' departLane='random' departSpeed='10' />
    <vehicle id='S_E_181' type='standard_car' route='S_E' depart='295.0' departLane='random' departSpeed='10' />
    <vehicle id='S_E_182' type='standard_car' route='S_E' depart='295.0' departLane='random' departSpeed='10' />
    <vehicle id='W_E_183' type='standard_car' route='W_E' depart='298.0' departLane='random' departSpeed='10' />
    <vehicle id='W_E_184' type='standard_car' route='W_E' depart='299.0' departLane='random' departSpeed='10' />
    <vehicle id='S_E_185' type='standard_car' route='S_E' depart='300.0' departLane='random' departSpeed='10' />
    <vehicle id='W_E_186' type='standard_car' route='W_E' depart='301.0' departLane='random' departSpeed='10' />
    <vehicle id='W_E_187' type='standard_car' route='W_E' depart='304.0' departLane='random' departSpeed='10' />
    <vehicle id='W_S_188' type='standard_car' route='W_S' depart='304.0' departLane='random' departSpeed='10' />
    <vehicle id='S_N_189' type='standard_car' route='S_N' depart='305.0' departLane='random' departSpeed='10' />
    <vehicle id='E_W_190' type='standard_car' route='E_W' depart='307.0' departLane='random' departSpeed='10' />
    <vehicle id='E_W_191' type='standard_car' route='E_W' depart='308.0' departLane='random' departSpeed='10' />
    <vehicle id='W_S_192' type='standard_car' route='W_S' depart='309.0' departLane='random' departSpeed='10' />
    <vehicle id='W_E_193' type='standard_car' route='W_E' depart='310.0' departLane='random' departSpeed='10' />
    <vehicle id='S_N_194' type='standard_car' route='S_N' depart='311.0' departLane='random' departSpeed='10' />
    <vehicle id='S_N_195' type='standard_car' route='S_N' depart='313.0' departLane='random' departSpeed='10' />
    <vehicle id='E_W_196' type='standard_car' route='E_W' depart='315.0' departLane='random' departSpeed='10' />
    <vehicle id='W_S_197' type='standard_car' route='W_S' depart='315.0' departLane='random' departSpeed='10' />
    <vehicle id='N_S_198' type='standard_car' route='N_S' depart='316.0' departLane='random' departSpeed='10' />
    <vehicle id='W_E_199' type='standard_car' route='W_E' depart='316.0' departLane='random' departSpeed='10' />
    <vehicle id='N_W_200' type='standard_car' route='N_W' depart='317.0' departLane='random' departSpeed='10' />
    <vehicle id='E_W_201' type='standard_car' route='E_W' depart='318.0' departLane='random' departSpeed='10' />
    <vehicle id='N_W_202' type='standard_car' route='N_W' depart='319.0' departLane='random' departSpeed='10' />
    <vehicle id='N_W_203' type='standard_car' route='N_W' depart='320.0' departLane='random' departSpeed='10' />
    <vehicle id='W_E_204' type='standard_car' route='W_E' depart='320.0' departLane='random' departSpeed='10' />
    <vehicle id='S_N_205' type='standard_car' route='S_N' depart='320.0' departLane='random' departSpeed='10' />
    <vehicle id='N_W_206' type='standard_car' route='N_W' depart='320.0' departLane='random' departSpeed='10' />
    <vehicle id='W_E_207' type='standard_car' route='W_E' depart='320.0' departLane='random' departSpeed='10' />
    <vehicle id='W_S_208' type='standard_car' route='W_S' depart='322.0' departLane='random' departSpeed='10' />
    <vehicle id='E_W_209' type='standard_car' route='E_W' depart='322.0' departLane='random' departSpeed='10' />
    <vehicle id='W_S_210' type='standard_car' route='W_S' depart='322.0' departLane='random' departSpeed='10' />
    <vehicle id='S_N_211' type='standard_car' route='S_N' depart='322.0' departLane='random' departSpeed='10' />
    <vehicle id='W_E_212' type='standard_car' route='W_E' depart='323.0' departLane='random' departSpeed='10' />
    <vehicle id='W_S_213' type='standard_car' route='W_S' depart='323.0' departLane='random' departSpeed='10' />
    <vehicle id='N_S_214' type='standard_car' route='N_S' depart='324.0' departLane='random' departSpeed='10' />
    <vehicle id='S_N_215' type='standard_car' route='S_N' depart='325.0' departLane='random' departSpeed='10' />
    <vehicle id='S_E_216' type='standard_car' route='S_E' depart='325.0' departLane='random' departSpeed='10' />
    <vehicle id='W_E_217' type='standard_car' route='W_E' depart='326.0' departLane='random' departSpeed='10' />
    <vehicle id='N_S_218' type='standard_car' route='N_S' depart='326.0' departLane='random' departSpeed='10' />
    <vehicle id='N_W_219' type='standard_car' route='N_W' depart='328.0' departLane='random' departSpeed='10' />
    <vehicle id='S_E_220' type='standard_car' route='S_E' depart='329.0' departLane='random' departSpeed='10' />
    <vehicle id='W_S_221' type='standard_car' route='W_S' depart='329.0' departLane='random' departSpeed='10' />
    <vehicle id='E_N_222' type='standard_car' route='E_N' depart='333.0' departLane='random' departSpeed='10' />
    <vehicle id='N_W_223' type='standard_car' route='N_W' depart='333.0' departLane='random' departSpeed='10' />
    <vehicle id='N_W_224' type='standard_car' route='N_W' depart='334.0' departLane='random' departSpeed='10' />
    <vehicle id='E_N_225' type='standard_car' route='E_N' depart='335.0' departLane='random' departSpeed='10' />
    <vehicle id='N_S_226' type='standard_car' route='N_S' depart='335.0' departLane='random' departSpeed='10' />
    <vehicle id='N_S_227' type='standard_car' route='N_S' depart='335.0' departLane='random' departSpeed='10' />
    <vehicle id='W_E_228' type='standard_car' route='W_E' depart='335.0' departLane='random' departSpeed='10' />
    <vehicle id='N_W_229' type='standard_car' route='N_W' depart='336.0' departLane='random' departSpeed='10' />
    <vehicle id='S_E_230' type='standard_car' route='S_E' depart='336.0' departLane='random' departSpeed='10' />
    <vehicle id='S_E_231' type='standard_car' route='S_E' depart='336.0' departLane='random' departSpeed='10' />
    <vehicle id='S_N_232' type='standard_car' route='S_N' depart='337.0' departLane='random' departSpeed='10' />
    <vehicle id='W_E_233' type='standard_car' route='W_E' depart='337.0' departLane='random' departSpeed='10' />
    <vehicle id='E_W_234' type='standard_car' route='E_W' depart='338.0' departLane='random' departSpeed='10' />
    <vehicle id='N_S_235' type='standard_car' route='N_S' depart='338.0' departLane='random' departSpeed='10' />
    <vehicle id='E_W_236' type='standard_car' route='E_W' depart='339.0' departLane='random' departSpeed='10' />
    <vehicle id='E_N_237' type='standard_car' route='E_N' depart='339.0' departLane='random' departSpeed='10' />
    <vehicle id='N_W_238' type='standard_car' route='N_W' depart='340.0' departLane='random' departSpeed='10' />
    <vehicle id='E_N_239' type='standard_car' route='E_N' depart='341.0' departLane='random' departSpeed='10' />
    <vehicle id='S_E_240' type='standard_car' route='S_E' depart='341.0' departLane='random' departSpeed='10' />
    <vehicle id='S_N_241' type='standard_car' route='S_N' depart='343.0' departLane='random' departSpeed='10' />
    <vehicle id='N_S_242' type='standard_car' route='N_S' depart='344.0' departLane='random' departSpeed='10' />
    <vehicle id='N_S_243' type='standard_car' route='N_S' depart='344.0' departLane='random' departSpeed='10' />
    <vehicle id='W_E_244' type='standard_car' route='W_E' depart='345.0' departLane='random' departSpeed='10' />
    <vehicle id='W_S_245' type='standard_car' route='W_S' depart='345.0' departLane='random' departSpeed='10' />
    <vehicle id='N_S_246' type='standard_car' route='N_S' depart='345.0' departLane='random' departSpeed='10' />
    <vehicle id='N_W_247' type='standard_car' route='N_W' depart='346.0' departLane='random' departSpeed='10' />
    <vehicle id='E_W_248' type='standard_car' route='E_W' depart='348.0' departLane='random' departSpeed='10' />
    <vehicle id='S_N_249' type='standard_car' route='S_N' depart='348.0' departLane='random' departSpeed='10' />
    <vehicle id='N_S_250' type='standard_car' route='N_S' depart='348.0' departLane='random' departSpeed='10' />
    <vehicle id='S_N_251' type='standard_car' route='S_N' depart='349.0' departLane='random' departSpeed='10' />
    <vehicle id='E_W_252' type='standard_car' route='E_W' depart='350.0' departLane='random' departSpeed='10' />
    <vehicle id='S_E_253' type='standard_car' route='S_E' depart='350.0' departLane='random' departSpeed='10' />
    <vehicle id='S_E_254' type='standard_car' route='S_E' depart='351.0' departLane='random' departSpeed='10' />
    <vehicle id='W_E_255' type='standard_car' route='W_E' depart='352.0' departLane='random' departSpeed='10' />
    <vehicle id='N_S_256' type='standard_car' route='N_S' depart='352.0' departLane='random' departSpeed='10' />
    <vehicle id='W_E_257' type='standard_car' route='W_E' depart='352.0' departLane='random' departSpeed='10' />
    <vehicle id='S_E_258' type='standard_car' route='S_E' depart='352.0' departLane='random' departSpeed='10' />
    <vehicle id='E_N_259' type='standard_car' route='E_N' depart='352.0' departLane='random' departSpeed='10' />