<routes>
    <vType id="standard_car" length="5.0" maxSpeed="15" minGap="2.5" accel="2.0" decel="4.5" />
    <route id="N_S" edges="road_1_2_3 road_1_1_3"/>
    <route id="N_E" edges="road_1_2_3 road_1_1_0"/>
    <route id="N_W" edges="road_1_2_3 road_1_1_2"/>
    <route id="S_W" edges="road_1_0_1 road_1_1_2"/>
    <route id="S_E" edges="road_1_0_1 road_1_1_0"/>
    <route id="S_N" edges="road_1_0_1 road_1_1_1"/>

    <route id="W_E" edges="road_0_1_0 road_1_1_0"/>
    <route id="W_N" edges="road_0_1_0 road_1_1_1"/>
    <route id="W_S" edges="road_0_1_0 road_1_1_3"/>
    <route id="E_N" edges="road_2_1_2 road_1_1_1"/>
    <route id="E_S" edges="road_2_1_2 road_1_1_3"/>
    <route id="E_W" edges="road_2_1_2 road_1_1_2"/>
            
    <vehicle id='N_S_0' type='standard_car' route='N_S' depart='19.0' departLane='random' departSpeed='10' />
    <vehicle id='N_S_1' type='standard_car' route='N_S' depart='23.0' departLane='random' departSpeed='10' />
    <vehicle id='E_W_2' type='standard_car' route='E_W' depart='39.0' departLane='random' departSpeed='10' />
    <vehicle id='S_N_3' type='standard_car' route='S_N' depart='52.0' departLane='random' departSpeed='10' />
    <vehicle id='E_W_4' type='standard_car' route='E_W' depart='61.0' departLane='random' departSpeed='10' />
    <vehicle id='W_S_5' type='standard_car' route='W_S' depart='62.0' departLane='random' departSpeed='10' />
    <vehicle id='N_W_6' type='standard_car' route='N_W' depart='63.0' departLane='random' departSpeed='10' />
    <vehicle id='N_S_7' type='standard_car' route='N_S' depart='71.0' departLane='random' departSpeed='10' />
    <vehicle id='S_E_8' type='standard_car' route='S_E' depart='72.0' departLane='random' departSpeed='10' />
    <vehicle id='E_N_9' type='standard_car' route='E_N' depart='75.0' departLane='random' departSpeed='10' />
    <vehicle id='W_E_10' type='standard_car' route='W_E' depart='80.0' departLane='random' departSpeed='10' />
    <vehicle id='E_W_11' type='standard_car' route='E_W' depart='80.0' departLane='random' departSpeed='10' />
    <vehicle id='W_S_12' type='standard_car' route='W_S' depart='82.0' departLane='random' departSpeed='10' />
    <vehicle id='W_S_13' type='standard_car' route='W_S' depart='84.0' departLane='random' departSpeed='10' />
    <vehicle id='W_S_14' type='standard_car' route='W_S' depart='86.0' departLane='random' departSpeed='10' />
    <vehicle id='E_W_15' type='standard_car' route='E_W' depart='88.0' departLane='random' departSpeed='10' />
    <vehicle id='W_E_16' type='standard_car' route='W_E' depart='109.0' departLane='random' departSpeed='10' />
    <vehicle id='N_S_17' type='standard_car' route='N_S' depart='111.0' departLane='random' departSpeed='10' />
    <vehicle id='S_N_18' type='standard_car' route='S_N' depart='127.0' departLane='random' departSpeed='10' />
    <vehicle id='W_E_19' type='standard_car' route='W_E' depart='129.0' departLane='random' departSpeed='10' />
    <vehicle id='S_N_20' type='standard_car' route='S_N' depart='132.0' departLane='random' departSpeed='10' />
    <vehicle id='E_N_21' type='standard_car' route='E_N' depart='133.0' departLane='random' departSpeed='10' />
    <vehicle id='S_N_22' type='standard_car' route='S_N' depart='135.0' departLane='random' departSpeed='10' />
    <vehicle id='E_N_23' type='standard_car' route='E_N' depart='135.0' departLane='random' departSpeed='10' />
    <vehicle id='S_E_24' type='standard_car' route='S_E' depart='139.0' departLane='random' departSpeed='10' />
    <vehicle id='E_N_25' type='standard_car' route='E_N' depart='141.0' departLane='random' departSpeed='10' />
    <vehicle id='S_N_26' type='standard_car' route='S_N' depart='144.0' departLane='random' departSpeed='10' />
    <vehicle id='N_W_27' type='standard_car' route='N_W' depart='146.0' departLane='random' departSpeed='10' />
    <vehicle id='E_W_28' type='standard_car' route='E_W' depart='149.0' departLane='random' departSpeed='10' />
    <vehicle id='S_N_29' type='standard_car' route='S_N' depart='152.0' departLane='random' departSpeed='10' />
    <vehicle id='S_N_30' type='standard_car' route='S_N' depart='159.0' departLane='random' departSpeed='10' />
    <vehicle id='N_S_31' type='standard_car' route='N_S' depart='162.0' departLane='random' departSpeed='10' />
    <vehicle id='S_N_32' type='standard_car' route='S_N' depart='164.0' departLane='random' departSpeed='10' />
    <vehicle id='W_E_33' type='standard_car' route='W_E' depart='167.0' departLane='random' departSpeed='10' />
    <vehicle id='N_W_34' type='standard_car' route='N_W' depart='168.0' departLane='random' departSpeed='10' />
    <vehicle id='N_S_35' type='standard_car' route='N_S' depart='172.0' departLane='random' departSpeed='10' />
    <vehicle id='S_E_36' type='standard_car' route='S_E' depart='173.0' departLane='random' departSpeed='10' />
    <vehicle id='S_E_37' type='standard_car' route='S_E' depart='173.0' departLane='random' departSpeed='10' />
    <vehicle id='E_W_38' type='standard_car' route='E_W' depart='177.0' departLane='random' departSpeed='10' />
    <vehicle id='E_N_39' type='standard_car' route='E_N' depart='177.0' departLane='random' departSpeed='10' />
    <vehicle id='E_N_40' type='standard_car' route='E_N' depart='180.0' departLane='random' departSpeed='10' />
    <vehicle id='W_E_41' type='standard_car' route='W_E' depart='182.0' departLane='random' departSpeed='10' />
    <vehicle id='N_S_42' type='standard_car' route='N_S' depart='182.0' departLane='random' departSpeed='10' />
    <vehicle id='S_N_43' type='standard_car' route='S_N' depart='182.0' departLane='random' departSpeed='10' />
    <vehicle id='S_E_44' type='standard_car' route='S_E' depart='185.0' departLane='random' departSpeed='10' />
    <vehicle id='N_W_45' type='standard_car' route='N_W' depart='186.0' departLane='random' departSpeed='10' />
    <vehicle id='E_W_46' type='standard_car' route='E_W' depart='188.0' departLane='random' departSpeed='10' />
    <vehicle id='N_W_47' type='standard_car' route='N_W' depart='188.0' departLane='random' departSpeed='10' />
    <vehicle id='E_W_48' type='standard_car' route='E_W' depart='189.0' departLane='random' departSpeed='10' />
    <vehicle id='W_S_49' type='standard_car' route='W_S' depart='190.0' departLane='random' departSpeed='10' />
    <vehicle id='S_N_50' type='standard_car' route='S_N' depart='192.0' departLane='random' departSpeed='10' />
    <vehicle id='W_E_51' type='standard_car' route='W_E' depart='196.0' departLane='random' departSpeed='10' />
    <vehicle id='E_W_52' type='standard_car' route='E_W' depart='197.0' departLane='random' departSpeed='10' />
    <vehicle id='N_S_53' type='standard_car' route='N_S' depart='199.0' departLane='random' departSpeed='10' />
    <vehicle id='N_S_54' type='standard_car' route='N_S' depart='202.0' departLane='random' departSpeed='10' />
    <vehicle id='E_W_55' type='standard_car' route='E_W' depart='207.0' departLane='random' departSpeed='10' />
    <vehicle id='W_S_56' type='standard_car' route='W_S' depart='207.0' departLane='random' departSpeed='10' />
    <vehicle id='E_W_57' type='standard_car' route='E_W' depart='208.0' departLane='random' departSpeed='10' />
    <vehicle id='S_E_58' type='standard_car' route='S_E' depart='209.0' departLane='random' departSpeed='10' />
    <vehicle id='N_S_59' type='standard_car' route='N_S' depart='213.0' departLane='random' departSpeed='10' />
    <vehicle id='E_W_60' type='standard_car' route='E_W' depart='214.0' departLane='random' departSpeed='10' />
    <vehicle id='W_E_61' type='standard_car' route='W_E' depart='215.0' departLane='random' departSpeed='10' />
    <vehicle id='E_W_62' type='standard_car' route='E_W' depart='219.0' departLane='random' departSpeed='10' />
    <vehicle id='S_N_63' type='standard_car' route='S_N' depart='220.0' departLane='random' departSpeed='10' />
    <vehicle id='S_N_64' type='standard_car' route='S_N' depart='222.0' departLane='random' departSpeed='10' />
    <vehicle id='W_S_65' type='standard_car' route='W_S' depart='225.0' departLane='random' departSpeed='10' />
    <vehicle id='S_N_66' type='standard_car' route='S_N' depart='225.0' departLane='random' departSpeed='10' />
    <vehicle id='N_S_67' type='standard_car' route='N_S' depart='228.0' departLane='random' departSpeed='10' />
    <vehicle id='E_N_68' type='standard_car' route='E_N' depart='231.0' departLane='random' departSpeed='10' />
    <vehicle id='N_S_69' type='standard_car' route='N_S' depart='233.0' departLane='random' departSpeed='10' />
    <vehicle id='S_N_70' type='standard_car' route='S_N' depart='235.0' departLane='random' departSpeed='10' />
    <vehicle id='N_W_71' type='standard_car' route='N_W' depart='235.0' departLane='random' departSpeed='10' />
    <vehicle id='W_E_72' type='standard_car' route='W_E' depart='235.0' departLane='random' departSpeed='10' />
    <vehicle id='S_E_73' type='standard_car' route='S_E' depart='238.0' departLane='random' departSpeed='10' />
    <vehicle id='S_N_74' type='standard_car' route='S_N' depart='239.0' departLane='random' departSpeed='10' />
    <vehicle id='N_W_75' type='standard_car' route='N_W' depart='239.0' departLane='random' departSpeed='10' />
    <vehicle id='W_S_76' type='standard_car' route='W_S' depart='239.0' departLane='random' departSpeed='10' />
    <vehicle id='W_S_77' type='standard_car' route='W_S' depart='240.0' departLane='random' departSpeed='10' />
    <vehicle id='N_W_78' type='standard_car' route='N_W' depart='240.0' departLane='random' departSpeed='10' />
    <vehicle id='N_S_79' type='standard_car' route='N_S' depart='241.0' departLane='random' departSpeed='10' />
    <vehicle id='E_W_80' type='standard_car' route='E_W' depart='244.0' departLane='random' departSpeed='10' />
    <vehicle id='E_W_81' type='standard_car' route='E_W' depart='245.0' departLane='random' departSpeed='10' />
    <vehicle id='E_W_82' type='standard_car' route='E_W' depart='246.0' departLane='random' departSpeed='10' />
    <vehicle id='S_E_83' type='standard_car' route='S_E' depart='249.0' departLane='random' departSpeed='10' />
    <vehicle id='N_S_84' type='standard_car' route='N_S' depart='251.0' departLane='random' departSpeed='10' />
    <vehicle id='S_N_85' type='standard_car' route='S_N' depart='252.0' departLane='random' departSpeed='10' />
    <vehicle id='N_W_86' type='standard_car' route='N_W' depart='253.0' departLane='random' departSpeed='10' />
    <vehicle id='S_N_87' type='standard_car' route='S_N' depart='253.0' departLane='random' departSpeed='10' />
    <vehicle id='W_S_88' type='standard_car' route='W_S' depart='258.0' departLane='random' departSpeed='10' />
    <vehicle id='E_N_89' type='standard_car' route='E_N' depart='262.0' departLane='random' departSpeed='10' />
    <vehicle id='E_W_90' type='standard_car' route='E_W' depart='262.0' departLane='random' departSpeed='10' />
    <vehicle id='W_S_91' type='standard_car' route='W_S' depart='264.0' departLane='random' departSpeed='10' />
    <vehicle id='E_W_92' type='standard_car' route='E_W' depart='266.0' departLane='random' departSpeed='10' />
    <vehicle id='W_S_93' type='standard_car' route='W_S' depart='268.0' departLane='random' departSpeed='10' />
    <vehicle id='W_E_94' type='standard_car' route='W_E' depart='268.0' departLane='random' departSpeed='10' />
    <vehicle id='W_S_95' type='standard_car' route='W_S' depart='269.0' departLane='random' departSpeed='10' />
    <vehicle id='E_N_96' type='standard_car' route='E_N' depart='270.0' departLane='random' departSpeed='10' />
    <vehicle id='S_E_97' type='standard_car' route='S_E' depart='270.0' departLane='random' departSpeed='10' />
    <vehicle id='S_N_98' type='standard_car' route='S_N' depart='275.0' departLane='random' departSpeed='10' />
    <vehicle id='S_N_99' type='standard_car' route='S_N' depart='275.0' departLane='random' departSpeed='10' />
    <vehicle id='S_N_100' type='standard_car' route='S_N' depart='278.0' departLane='random' departSpeed='10' />
    <vehicle id='W_E_101' type='standard_car' route='W_E' depart='279.0' departLane='random' departSpeed='10' />
    <vehicle id='S_N_102' type='standard_car' route='S_N' depart='279.0' departLane='random' departSpeed='10' />
    <vehicle id='E_W_103' type='standard_car' route='E_W' depart='281.0' departLane='random' departSpeed='10' />
    <vehicle id='S_N_104' type='standard_car' route='S_N' depart='282.0' departLane='random' departSpeed='10' />
    <vehicle id='W_S_105' type='standard_car' route='W_S' depart='287.0' departLane='random' departSpeed='10' />
    <vehicle id='S_N_106' type='standard_car' route='S_N' depart='287.0' departLane='random' departSpeed='10' />
    <vehicle id='N_S_107' type='standard_car' route='N_S' depart='288.0' departLane='random' departSpeed='10' />
    <vehicle id='W_E_108' type='standard_car' route='W_E' depart='291.0' departLane='random' departSpeed='10' />
    <vehicle id='S_N_109' type='standard_car' route='S_N' depart='294.0' departLane='random' departSpeed='10' />
    <vehicle id='N_S_110' type='standard_car' route='N_S' depart='295.0' departLane='random' departSpeed='10' />
    <vehicle id='S_E_111' type='standard_car' route='S_E' depart='297.0' departLane='random' departSpeed='10' />
    <vehicle id='W_E_112' type='standard_car' route='W_E' depart='297.0' departLane='random' departSpeed='10' />
    <vehicle id='N_S_113' type='standard_car' route='N_S' depart='298.0' departLane='random' departSpeed='10' />
    <vehicle id='S_N_114' type='standard_car' route='S_N' depart='300.0' departLane='random' departSpeed='10' />
    <vehicle id='E_W_115' type='standard_car' route='E_W' depart='301.0' departLane='random' departSpeed='10' />
    <vehicle id='W_S_116' type='standard_car' route='W_S' depart='301.0' departLane='random' departSpeed='10' />
    <vehicle id='E_W_117' type='standard_car' route='E_W' depart='303.0' departLane='random' departSpeed='10' />
    <vehicle id='S_N_118' type='standard_car' route='S_N' depart='304.0' departLane='random' departSpeed='10' />
    <vehicle id='E_W_119' type='standard_car' route='E_W' depart='304.0' departLane='random' departSpeed='10' />
    <vehicle id='N_W_120' type='standard_car' route='N_W' depart='304.0' departLane='random' departSpeed='10' />
    <vehicle id='E_N_121' type='standard_car' route='E_N' depart='304.0' departLane='random' departSpeed='10' />
    <vehicle id='N_S_122' type='standard_car' route='N_S' depart='307.0' departLane='random' departSpeed='10' />
    <vehicle id='N_S_123' type='standard_car' route='N_S' depart='308.0' departLane='random' departSpeed='10' />
    <vehicle id='S_E_124' type='standard_car' route='S_E' depart='311.0' departLane='random' departSpeed='10' />
    <vehicle id='S_E_125' type='standard_car' route='S_E' depart='312.0' departLane='random' departSpeed='10' />
    <vehicle id='W_S_126' type='standard_car' route='W_S' depart='315.0' departLane='random' departSpeed='10' />
    <vehicle id='W_S_127' type='standard_car' route='W_S' depart='315.0' departLane='random' departSpeed='10' />
    <vehicle id='N_S_128' type='standard_car' route='N_S' depart='317.0' departLane='random' departSpeed='10' />
    <vehicle id='N_W_129' type='standard_car' route='N_W' depart='321.0' departLane='random' departSpeed='10' />
    <vehicle id='W_E_130' type='standard_car' route='W_E' depart='321.0' departLane='random' departSpeed='10' />
    <vehicle id='N_S_131' type='standard_car' route='N_S' depart='321.0' departLane='random' departSpeed='10' />
    <vehicle id='W_E_132' type='standard_car' route='W_E' depart='324.0' departLane='random' departSpeed='10' />
    <vehicle id='S_E_133' type='standard_car' route='S_E' depart='324.0' departLane='random' departSpeed='10' />
    <vehicle id='N_W_134' type='standard_car' route='N_W' depart='326.0' departLane='random' departSpeed='10' />
    <vehicle id='N_S_135' type='standard_car' route='N_S' depart='327.0' departLane='random' departSpeed='10' />
    <vehicle id='S_E_136' type='standard_car' route='S_E' depart='327.0' departLane='random' departSpeed='10' />
    <vehicle id='W_S_137' type='standard_car' route='W_S' depart='330.0' departLane='random' departSpeed='10' />
    <vehicle id='N_W_138' type='standard_car' route='N_W' depart='330.0' departLane='random' departSpeed='10' />
    <vehicle id='S_E_139' type='standard_car' route='S_E' depart='330.0' departLane='random' departSpeed='10' />
    <vehicle id='S_N_140' type='standard_car' route='S_N' depart='333.0' departLane='random' departSpeed='10' />
    <vehicle id='E_W_141' type='standard_car' route='E_W' depart='334.0' departLane='random' departSpeed='10' />
    <vehicle id='N_W_142' type='standard_car' route='N_W' depart='335.0' departLane='random' departSpeed='10' />
    <vehicle id='W_E_143' type='standard_car' route='W_E' depart='337.0' departLane='random' departSpeed='10' />
    <vehicle id='W_E_144' type='standard_car' route='W_E' depart='338.0' departLane='random' departSpeed='10' />
    <vehicle id='E_W_145' type='standard_car' route='E_W' depart='338.0' departLane='random' departSpeed='10' />
    <vehicle id='N_W_146' type='standard_car' route='N_W' depart='339.0' departLane='random' departSpeed='10' />
    <vehicle id='S_E_147' type='standard_car' route='S_E' depart='339.0' departLane='random' departSpeed='10' />
    <vehicle id='W_E_148' type='standard_car' route='W_E' depart='343.0' departLane='random' departSpeed='10' />
    <vehicle id='N_S_149' type='standard_car' route='N_S' depart='344.0' departLane='random' departSpeed='10' />
    <vehicle id='E_W_150' type='standard_car' route='E_W' depart='351.0' departLane='random' departSpeed='10' />
    <vehicle id='W_S_151' type='standard_car' route='W_S' depart='354.0' departLane='random' departSpeed='10' />
    <vehicle id='N_S_152' type='standard_car' route='N_S' depart='356.0' departLane='random' departSpeed='10' />
    <vehicle id='N_W_153' type='standard_car' route='N_W' depart='357.0' departLane='random' departSpeed='10' />
    <vehicle id='S_E_154' type='standard_car' route='S_E' depart='357.0' departLane='random' departSpeed='10' />
    <vehicle id='W_E_155' type='standard_car' route='W_E' depart='360.0' departLane='random' departSpeed='10' />
    <vehicle id='E_N_156' type='standard_car' route='E_N' depart='360.0' departLane='random' departSpeed='10' />
    <vehicle id='N_S_157' type='standard_car' route='N_S' depart='360.0' departLane='random' departSpeed='10' />
    <vehicle id='S_N_158' type='standard_car' route='S_N' depart='362.0' departLane='random' departSpeed='10' />
    <vehicle id='N_W_159' type='standard_car' route='N_W' depart='363.0' departLane='random' departSpeed='10' />
    <vehicle id='E_N_160' type='standard_car' route='E_N' depart='364.0' departLane='random' departSpeed='10' />
    <vehicle id='N_W_161' type='standard_car' route='N_W' depart='364.0' departLane='random' departSpeed='10' />
    <vehicle id='N_W_162' type='standard_car' route='N_W' depart='365.0' departLane='random' departSpeed='10' />
    <vehicle id='S_N_163' type='standard_car' route='S_N' depart='366.0' departLane='random' departSpeed='10' />
    <vehicle id='E_W_164' type='standard_car' route='E_W' depart='369.0' departLane='random' departSpeed='10' />
    <vehicle id='W_E_165' type='standard_car' route='W_E' depart='370.0' departLane='random' departSpeed='10' />
    <vehicle id='N_S_166' type='standard_car' route='N_S' depart='371.0' departLane='random' departSpeed='10' />
    <vehicle id='N_S_167' type='standard_car' route='N_S' depart='371.0' departLane='random' departSpeed='10' />
    <vehicle id='S_E_168' type='standard_car' route='S_E' depart='372.0' departLane='random' departSpeed='10' />
    <vehicle id='W_E_169' type='standard_car' route='W_E' depart='372.0' departLane='random' departSpeed='10' />
    <vehicle id='N_S_170' type='standard_car' route='N_S' depart='373.0' departLane='random' departSpeed='10' />
    <vehicle id='W_E_171' type='standard_car' route='W_E' depart='374.0' departLane='random' departSpeed='10' />
    <vehicle id='S_E_172' type='standard_car' route='S_E' depart='377.0' departLane='random' departSpeed='10' />
    <vehicle id='E_N_173' type='standard_car' route='E_N' depart='377.0' departLane='random' departSpeed='10' />
    <vehicle id='W_S_174' type='standard_car' route='W_S' depart='377.0' departLane='random' departSpeed='10' />
    <vehicle id='W_E_175' type='standard_car' route='W_E' depart='380.0' departLane='random' departSpeed='10' />
    <vehicle id='N_S_176' type='standard_car' route='N_S' depart='380.0' departLane='random' departSpeed='10' />
    <vehicle id='N_S_177' type='standard_car' route='N_S' depart='380.0' departLane='random' departSpeed='10' />
    <vehicle id='W_S_178' type='standard_car' route='W_S' depart='381.0' departLane='random' departSpeed='10' />
    <vehicle id='E_N_179' type='standard_car' route='E_N' depart='381.0' departLane='random' departSpeed='10' />
    <vehicle id='E_W_180' type='standard_car' route='E_W' depart='383.0' departLane='random' departSpeed='10' />
    <vehicle id='E_W_181' type='standard_car' route='E_W' depart='384.0' departLane='random' departSpeed='10' />
    <vehicle id='W_S_182' type='standard_car' route='W_S' depart='385.0' departLane='random' departSpeed='10' />
    <vehicle id='E_N_183' type='standard_car' route='E_N' depart='386.0' departLane='random' departSpeed='10' />
    <vehicle id='S_N_184' type='standard_car' route='S_N' depart='388.0' departLane='random' departSpeed='10' />
    <vehicle id='N_S_185' type='standard_car' route='N_S' depart='389.0' departLane='random' departSpeed='10' />
    <vehicle id='E_N_186' type='standard_car' route='E_N' depart='390.0' departLane='random' departSpeed='10' />
    <vehicle id='E_N_187' type='standard_car' route='E_N' depart='391.0' departLane='random' departSpeed='10' />
    <vehicle id='S_N_188' type='standard_car' route='S_N' depart='392.0' departLane='random' departSpeed='10' />
    <vehicle id='S_E_189' type='standard_car' route='S_E' depart='393.0' departLane='random' departSpeed='10' />
    <vehicle id='N_S_190' type='standard_car' route='N_S' depart='393.0' departLane='random' departSpeed='10' />
    <vehicle id='W_E_191' type='standard_car' route='W_E' depart='395.0' departLane='random' departSpeed='10' />
    <vehicle id='S_N_192' type='standard_car' route='S_N' depart='399.0' departLane='random' departSpeed='10' />
    <vehicle id='W_E_193' type='standard_car' route='W_E' depart='403.0' departLane='random' departSpeed='10' />
    <vehicle id='N_S_194' type='standard_car' route='N_S' depart='405.0' departLane='random' departSpeed='10' />
    <vehicle id='E_N_195' type='standard_car' route='E_N' depart='405.0' departLane='random' departSpeed='10' />
    <vehicle id='N_W_196' type='standard_car' route='N_W' depart='406.0' departLane='random' departSpeed='10' />
    <vehicle id='W_E_197' type='standard_car' route='W_E' depart='407.0' departLane='random' departSpeed='10' />
    <vehicle id='E_N_198' type='standard_car' route='E_N' depart='409.0' departLane='random' departSpeed='10' />
    <vehicle id='E_N_199' type='standard_car' route='E_N' depart='410.0' departLane='random' departSpeed='10' />
    <vehicle id='N_S_200' type='standard_car' route='N_S' depart='410.0' departLane='random' departSpeed='10' />
    <vehicle id='E_W_201' type='standard_car' route='E_W' depart='411.0' departLane='random' departSpeed='10' />
    <vehicle id='E_N_202' type='standard_car' route='E_N' depart='412.0' departLane='random' departSpeed='10' />
    <vehicle id='N_S_203' type='standard_car' route='N_S' depart='413.0' departLane='random' departSpeed='10' />
    <vehicle id='W_S_204' type='standard_car' route='W_S' depart='414.0' departLane='random' departSpeed='10' />
    <vehicle id='N_S_205' type='standard_car' route='N_S' depart='414.0' departLane='random' departSpeed='10' />
    <vehicle id='S_N_206' type='standard_car' route='S_N' depart='414.0' departLane='random' departSpeed='10' />
    <vehicle id='W_S_207' type='standard_car' route='W_S' depart='415.0' departLane='random' departSpeed='10' />
    <vehicle id='N_W_208' type='standard_car' route='N_W' depart='416.0' departLane='random' departSpeed='10' />
    <vehicle id='E_N_209' type='standard_car' route='E_N' depart='416.0' departLane='random' departSpeed='10' />
    <vehicle id='S_E_210' type='standard_car' route='S_E' depart='417.0' departLane='random' departSpeed='10' />
    <vehicle id='W_S_211' type='standard_car' route='W_S' depart='418.0' departLane='random' departSpeed='10' />
    <vehicle id='W_E_212' type='standard_car' route='W_E' depart='419.0' departLane='random' departSpeed='10' />
    <vehicle id='W_E_213' type='standard_car' route='W_E' depart='421.0' departLane='random' departSpeed='10' />
    <vehicle id='W_S_214' type='standard_car' route='W_S' depart='421.0' departLane='random' departSpeed='10' />
    <vehicle id='E_W_215' type='standard_car' route='E_W' depart='422.0' departLane='random' departSpeed='10' />
    <vehicle id='N_S_216' type='standard_car' route='N_S' depart='426.0' departLane='random' departSpeed='10' />
    <vehicle id='W_E_217' type='standard_car' route='W_E' depart='426.0' departLane='random' departSpeed='10' />
    <vehicle id='W_S_218' type='standard_car' route='W_S' depart='428.0' departLane='random' departSpeed='10' />
    <vehicle id='E_N_219' type='standard_car' route='E_N' depart='430.0' departLane='random' departSpeed='10' />
    <vehicle id='S_N_220' type='standard_car' route='S_N' depart='430.0' departLane='random' departSpeed='10' />
    <vehicle id='E_W_221' type='standard_car' route='E_W' depart='431.0' departLane='random' departSpeed='10' />
    <vehicle id='N_S_222' type='standard_car' route='N_S' depart='432.0' departLane='random' departSpeed='10' />
    <vehicle id='S_E_223' type='standard_car' route='S_E' depart='433.0' departLane='random' departSpeed='10' />
    <vehicle id='E_W_224' type='standard_car' route='E_W' depart='434.0' departLane='random' departSpeed='10' />
    <vehicle id='S_N_225' type='standard_car' route='S_N' depart='435.0' departLane='random' departSpeed='10' />
    <vehicle id='S_N_226' type='standard_car' route='S_N' depart='435.0' departLane='random' departSpeed='10' />
    <vehicle id='E_W_227' type='standard_car' route='E_W' depart='436.0' departLane='random' departSpeed='10' />
    <vehicle id='N_S_228' type='standard_car' route='N_S' depart='438.0' departLane='random' departSpeed='10' />
    <vehicle id='W_E_229' type='standard_car' route='W_E' depart='438.0' departLane='random' departSpeed='10' />
    <vehicle id='N_W_230' type='standard_car' route='N_W' depart='439.0' departLane='random' departSpeed='10' />
    <vehicle id='E_W_231' type='standard_car' route='E_W' depart='439.0' departLane='random' departSpeed='10' />
    <vehicle id='W_E_232' type='standard_car' route='W_E' depart='440.0' departLane='random' departSpeed='10' />
    <vehicle id='N_S_233' type='standard_car' route='N_S' depart='440.0' departLane='random' departSpeed='10' />
    <vehicle id='W_S_234' type='standard_car' route='W_S' depart='440.0' departLane='random' departSpeed='10' />
    <vehicle id='E_N_235' type='standard_car' route='E_N' depart='441.0' departLane='random' departSpeed='10' />
    <vehicle id='S_N_236' type='standard_car' route='S_N' depart='442.0' departLane='random' departSpeed='10' />
    <vehicle id='W_E_237' type='standard_car' route='W_E' depart='443.0' departLane='random' departSpeed='10' />
    <vehicle id='N_S_238' type='standard_car' route='N_S' depart='443.0' departLane='random' departSpeed='10' />
    <vehicle id='S_N_239' type='standard_car' route='S_N' depart='446.0' departLane='random' departSpeed='10' />
    <vehicle id='E_N_240' type='standard_car' route='E_N' depart='447.0' departLane='random' departSpeed='10' />
    <vehicle id='W_E_241' type='standard_car' route='W_E' depart='447.0' departLane='random' departSpeed='10' />
    <vehicle id='W_E_242' type='standard_car' route='W_E' depart='450.0' departLane='random' departSpeed='10' />
    <vehicle id='W_E_243' type='standard_car' route='W_E' depart='454.0' departLane='random' departSpeed='10' />
    <vehicle id='E_N_244' type='standard_car' route='E_N' depart='456.0' departLane='random' departSpeed='10' />
    <vehicle id='W_E_245' type='standard_car' route='W_E' depart='456.0' departLane='random' departSpeed='10' />
    <vehicle id='E_W_246' type='standard_car' route='E_W' depart='456.0' departLane='random' departSpeed='10' />
    <vehicle id='N_S_247' type='standard_car' route='N_S' depart='457.0' departLane='random' departSpeed='10' />
    <vehicle id='E_N_248' type='standard_car' route='E_N' depart='458.0' departLane='random' departSpeed='10' />
    <vehicle id='S_E_249' type='standard_car' route='S_E' depart='458.0' departLane='random' departSpeed='10' />
    <vehicle id='N_W_250' type='standard_car' route='N_W' depart='458.0' departLane='random' departSpeed='10' />
    <vehicle id='N_S_251' type='standard_car' route='N_S' depart='459.0' departLane='random' departSpeed='10' />
    <vehicle id='N_S_252' type='standard_car' route='N_S' depart='460.0' departLane='random' departSpeed='10' />
    <vehicle id='S_N_253' type='standard_car' route='S_N' depart='461.0' departLane='random' departSpeed='10' />
    <vehicle id='E_W_254' type='standard_car' route='E_W' depart='461.0' departLane='random' departSpeed='10' />
    <vehicle id='N_W_255' type='standard_car' route='N_W' depart='462.0' departLane='random' departSpeed='10' />
    <vehicle id='S_N_256' type='standard_car' route='S_N' depart='464.0' departLane='random' departSpeed='10' />
    <vehicle id='E_N_257' type='standard_car' route='E_N' depart='464.0' departLane='random' departSpeed='10' />
    <vehicle id='E_W_258' type='standard_car' route='E_W' depart='464.0' departLane='random' departSpeed='10' />
    <vehicle id='S_E_259' type='standard_car' route='S_E' depart='465.0' departLane='random' departSpeed='10' />