<routes>
    <vType id="standard_car" length="5.0" maxSpeed="15" minGap="2.5" accel="2.0" decel="4.5" />
    <route id="N_S" edges="road_1_2_3 road_1_1_3"/>
    <route id="N_E" edges="road_1_2_3 road_1_1_0"/>
    <route id="N_W" edges="road_1_2_3 road_1_1_2"/>
    <route id="S_W" edges="road_1_0_1 road_1_1_2"/>
    <route id="S_E" edges="road_1_0_1 road_1_1_0"/>
    <route id="S_N" edges="road_1_0_1 road_1_1_1"/>

    <route id="W_E" edges="road_0_1_0 road_1_1_0"/>
    <route id="W_N" edges="road_0_1_0 road_1_1_1"/>
    <route id="W_S" edges="road_0_1_0 road_1_1_3"/>
    <route id="E_N" edges="road_2_1_2 road_1_1_1"/>
    <route id="E_S" edges="road_2_1_2 road_1_1_3"/>
    <route id="E_W" edges="road_2_1_2 road_1_1_2"/>
            
    <vehicle id='E_N_0' type='standard_car' route='E_N' depart='6.0' departLane='random' departSpeed='10' />
    <vehicle id='N_S_1' type='standard_car' route='N_S' depart='14.0' departLane='random' departSpeed='10' />
    <vehicle id='S_N_2' type='standard_car' route='S_N' depart='39.0' departLane='random' departSpeed='10' />
    <vehicle id='N_W_3' type='standard_car' route='N_W' depart='44.0' departLane='random' departSpeed='10' />
    <vehicle id='E_N_4' type='standard_car' route='E_N' depart='52.0' departLane='random' departSpeed='10' />
    <vehicle id='E_W_5' type='standard_car' route='E_W' depart='61.0' departLane='random' departSpeed='10' />
    <vehicle id='S_N_6' type='standard_car' route='S_N' depart='64.0' departLane='random' departSpeed='10' />
    <vehicle id='W_E_7' type='standard_car' route='W_E' depart='80.0' departLane='random' departSpeed='10' />
    <vehicle id='W_S_8' type='standard_car' route='W_S' depart='82.0' departLane='random' departSpeed='10' />
    <vehicle id='E_N_9' type='standard_car' route='E_N' depart='83.0' departLane='random' departSpeed='10' />
    <vehicle id='N_S_10' type='standard_car' route='N_S' depart='88.0' departLane='random' departSpeed='10' />
    <vehicle id='S_E_11' type='standard_car' route='S_E' depart='89.0' departLane='random' departSpeed='10' />
    <vehicle id='N_W_12' type='standard_car' route='N_W' depart='89.0' departLane='random' departSpeed='10' />
    <vehicle id='S_N_13' type='standard_car' route='S_N' depart='91.0' departLane='random' departSpeed='10' />
    <vehicle id='S_E_14' type='standard_car' route='S_E' depart='97.0' departLane='random' departSpeed='10' />
    <vehicle id='W_E_15' type='standard_car' route='W_E' depart='99.0' departLane='random' departSpeed='10' />
    <vehicle id='S_E_16' type='standard_car' route='S_E' depart='101.0' departLane='random' departSpeed='10' />
    <vehicle id='E_W_17' type='standard_car' route='E_W' depart='102.0' departLane='random' departSpeed='10' />
    <vehicle id='E_W_18' type='standard_car' route='E_W' depart='106.0' departLane='random' departSpeed='10' />
    <vehicle id='S_N_19' type='standard_car' route='S_N' depart='108.0' departLane='random' departSpeed='10' />
    <vehicle id='S_E_20' type='standard_car' route='S_E' depart='112.0' departLane='random' departSpeed='10' />
    <vehicle id='S_E_21' type='standard_car' route='S_E' depart='119.0' departLane='random' departSpeed='10' />
    <vehicle id='W_E_22' type='standard_car' route='W_E' depart='119.0' departLane='random' departSpeed='10' />
    <vehicle id='E_W_23' type='standard_car' route='E_W' depart='120.0' departLane='random' departSpeed='10' />
    <vehicle id='W_S_24' type='standard_car' route='W_S' depart='128.0' departLane='random' departSpeed='10' />
    <vehicle id='S_N_25' type='standard_car' route='S_N' depart='132.0' departLane='random' departSpeed='10' />
    <vehicle id='E_N_26' type='standard_car' route='E_N' depart='134.0' departLane='random' departSpeed='10' />
    <vehicle id='W_E_27' type='standard_car' route='W_E' depart='136.0' departLane='random' departSpeed='10' />
    <vehicle id='W_S_28' type='standard_car' route='W_S' depart='136.0' departLane='random' departSpeed='10' />
    <vehicle id='E_W_29' type='standard_car' route='E_W' depart='136.0' departLane='random' departSpeed='10' />
    <vehicle id='E_W_30' type='standard_car' route='E_W' depart='141.0' departLane='random' departSpeed='10' />
    <vehicle id='W_S_31' type='standard_car' route='W_S' depart='144.0' departLane='random' departSpeed='10' />
    <vehicle id='E_W_32' type='standard_car' route='E_W' depart='149.0' departLane='random' departSpeed='10' />
    <vehicle id='S_N_33' type='standard_car' route='S_N' depart='151.0' departLane='random' departSpeed='10' />
    <vehicle id='N_S_34' type='standard_car' route='N_S' depart='155.0' departLane='random' departSpeed='10' />
    <vehicle id='E_N_35' type='standard_car' route='E_N' depart='163.0' departLane='random' departSpeed='10' />
    <vehicle id='S_N_36' type='standard_car' route='S_N' depart='163.0' departLane='random' departSpeed='10' />
    <vehicle id='W_E_37' type='standard_car' route='W_E' depart='164.0' departLane='random' departSpeed='10' />
    <vehicle id='N_S_38' type='standard_car' route='N_S' depart='164.0' departLane='random' departSpeed='10' />
    <vehicle id='E_W_39' type='standard_car' route='E_W' depart='165.0' departLane='random' departSpeed='10' />
    <vehicle id='N_W_40' type='standard_car' route='N_W' depart='165.0' departLane='random' departSpeed='10' />
    <vehicle id='E_N_41' type='standard_car' route='E_N' depart='167.0' departLane='random' departSpeed='10' />
    <vehicle id='S_N_42' type='standard_car' route='S_N' depart='168.0' departLane='random' departSpeed='10' />
    <vehicle id='W_E_43' type='standard_car' route='W_E' depart='170.0' departLane='random' departSpeed='10' />
    <vehicle id='S_N_44' type='standard_car' route='S_N' depart='172.0' departLane='random' departSpeed='10' />
    <vehicle id='S_N_45' type='standard_car' route='S_N' depart='172.0' departLane='random' departSpeed='10' />
    <vehicle id='E_N_46' type='standard_car' route='E_N' depart='177.0' departLane='random' departSpeed='10' />
    <vehicle id='W_E_47' type='standard_car' route='W_E' depart='178.0' departLane='random' departSpeed='10' />
    <vehicle id='N_S_48' type='standard_car' route='N_S' depart='180.0' departLane='random' departSpeed='10' />
    <vehicle id='W_E_49' type='standard_car' route='W_E' depart='181.0' departLane='random' departSpeed='10' />
    <vehicle id='S_E_50' type='standard_car' route='S_E' depart='181.0' departLane='random' departSpeed='10' />
    <vehicle id='W_E_51' type='standard_car' route='W_E' depart='181.0' departLane='random' departSpeed='10' />
    <vehicle id='W_E_52' type='standard_car' route='W_E' depart='183.0' departLane='random' departSpeed='10' />
    <vehicle id='E_W_53' type='standard_car' route='E_W' depart='185.0' departLane='random' departSpeed='10' />
    <vehicle id='W_S_54' type='standard_car' route='W_S' depart='185.0' departLane='random' departSpeed='10' />
    <vehicle id='W_E_55' type='standard_car' route='W_E' depart='187.0' departLane='random' departSpeed='10' />
    <vehicle id='W_E_56' type='standard_car' route='W_E' depart='191.0' departLane='random' departSpeed='10' />
    <vehicle id='E_N_57' type='standard_car' route='E_N' depart='194.0' departLane='random' departSpeed='10' />
    <vehicle id='N_W_58' type='standard_car' route='N_W' depart='194.0' departLane='random' departSpeed='10' />
    <vehicle id='N_W_59' type='standard_car' route='N_W' depart='195.0' departLane='random' departSpeed='10' />
    <vehicle id='N_W_60' type='standard_car' route='N_W' depart='198.0' departLane='random' departSpeed='10' />
    <vehicle id='E_W_61' type='standard_car' route='E_W' depart='198.0' departLane='random' departSpeed='10' />
    <vehicle id='E_N_62' type='standard_car' route='E_N' depart='198.0' departLane='random' departSpeed='10' />
    <vehicle id='N_S_63' type='standard_car' route='N_S' depart='199.0' departLane='random' departSpeed='10' />
    <vehicle id='E_N_64' type='standard_car' route='E_N' depart='201.0' departLane='random' departSpeed='10' />
    <vehicle id='W_E_65' type='standard_car' route='W_E' depart='202.0' departLane='random' departSpeed='10' />
    <vehicle id='S_N_66' type='standard_car' route='S_N' depart='203.0' departLane='random' departSpeed='10' />
    <vehicle id='W_E_67' type='standard_car' route='W_E' depart='203.0' departLane='random' departSpeed='10' />
    <vehicle id='N_S_68' type='standard_car' route='N_S' depart='205.0' departLane='random' departSpeed='10' />
    <vehicle id='E_W_69' type='standard_car' route='E_W' depart='210.0' departLane='random' departSpeed='10' />
    <vehicle id='E_N_70' type='standard_car' route='E_N' depart='211.0' departLane='random' departSpeed='10' />
    <vehicle id='N_S_71' type='standard_car' route='N_S' depart='212.0' departLane='random' departSpeed='10' />
    <vehicle id='S_N_72' type='standard_car' route='S_N' depart='216.0' departLane='random' departSpeed='10' />
    <vehicle id='E_W_73' type='standard_car' route='E_W' depart='219.0' departLane='random' departSpeed='10' />
    <vehicle id='S_E_74' type='standard_car' route='S_E' depart='222.0' departLane='random' departSpeed='10' />
    <vehicle id='E_N_75' type='standard_car' route='E_N' depart='223.0' departLane='random' departSpeed='10' />
    <vehicle id='E_W_76' type='standard_car' route='E_W' depart='223.0' departLane='random' departSpeed='10' />
    <vehicle id='E_W_77' type='standard_car' route='E_W' depart='224.0' departLane='random' departSpeed='10' />
    <vehicle id='E_W_78' type='standard_car' route='E_W' depart='226.0' departLane='random' departSpeed='10' />
    <vehicle id='S_E_79' type='standard_car' route='S_E' depart='226.0' departLane='random' departSpeed='10' />
    <vehicle id='W_E_80' type='standard_car' route='W_E' depart='233.0' departLane='random' departSpeed='10' />
    <vehicle id='W_E_81' type='standard_car' route='W_E' depart='243.0' departLane='random' departSpeed='10' />
    <vehicle id='N_W_82' type='standard_car' route='N_W' depart='244.0' departLane='random' departSpeed='10' />
    <vehicle id='S_E_83' type='standard_car' route='S_E' depart='247.0' departLane='random' departSpeed='10' />
    <vehicle id='S_N_84' type='standard_car' route='S_N' depart='249.0' departLane='random' departSpeed='10' />
    <vehicle id='S_E_85' type='standard_car' route='S_E' depart='250.0' departLane='random' departSpeed='10' />
    <vehicle id='S_N_86' type='standard_car' route='S_N' depart='250.0' departLane='random' departSpeed='10' />
    <vehicle id='E_W_87' type='standard_car' route='E_W' depart='251.0' departLane='random' departSpeed='10' />
    <vehicle id='N_W_88' type='standard_car' route='N_W' depart='253.0' departLane='random' departSpeed='10' />
    <vehicle id='S_E_89' type='standard_car' route='S_E' depart='253.0' departLane='random' departSpeed='10' />
    <vehicle id='N_W_90' type='standard_car' route='N_W' depart='256.0' departLane='random' departSpeed='10' />
    <vehicle id='E_N_91' type='standard_car' route='E_N' depart='259.0' departLane='random' departSpeed='10' />
    <vehicle id='S_E_92' type='standard_car' route='S_E' depart='260.0' departLane='random' departSpeed='10' />
    <vehicle id='S_N_93' type='standard_car' route='S_N' depart='263.0' departLane='random' departSpeed='10' />
    <vehicle id='W_S_94' type='standard_car' route='W_S' depart='263.0' departLane='random' departSpeed='10' />
    <vehicle id='N_S_95' type='standard_car' route='N_S' depart='265.0' departLane='random' departSpeed='10' />
    <vehicle id='E_N_96' type='standard_car' route='E_N' depart='267.0' departLane='random' departSpeed='10' />
    <vehicle id='N_W_97' type='standard_car' route='N_W' depart='267.0' departLane='random' departSpeed='10' />
    <vehicle id='N_S_98' type='standard_car' route='N_S' depart='267.0' departLane='random' departSpeed='10' />
    <vehicle id='E_N_99' type='standard_car' route='E_N' depart='278.0' departLane='random' departSpeed='10' />
    <vehicle id='E_N_100' type='standard_car' route='E_N' depart='278.0' departLane='random' departSpeed='10' />
    <vehicle id='E_N_101' type='standard_car' route='E_N' depart='279.0' departLane='random' departSpeed='10' />
    <vehicle id='E_N_102' type='standard_car' route='E_N' depart='280.0' departLane='random' departSpeed='10' />
    <vehicle id='S_N_103' type='standard_car' route='S_N' depart='281.0' departLane='random' departSpeed='10' />
    <vehicle id='W_S_104' type='standard_car' route='W_S' depart='282.0' departLane='random' departSpeed='10' />
    <vehicle id='N_W_105' type='standard_car' route='N_W' depart='282.0' departLane='random' departSpeed='10' />
    <vehicle id='N_S_106' type='standard_car' route='N_S' depart='282.0' departLane='random' departSpeed='10' />
    <vehicle id='S_E_107' type='standard_car' route='S_E' depart='282.0' departLane='random' departSpeed='10' />
    <vehicle id='E_W_108' type='standard_car' route='E_W' depart='282.0' departLane='random' departSpeed='10' />
    <vehicle id='N_S_109' type='standard_car' route='N_S' depart='283.0' departLane='random' departSpeed='10' />
    <vehicle id='W_E_110' type='standard_car' route='W_E' depart='284.0' departLane='random' departSpeed='10' />
    <vehicle id='N_S_111' type='standard_car' route='N_S' depart='284.0' departLane='random' departSpeed='10' />
    <vehicle id='S_E_112' type='standard_car' route='S_E' depart='284.0' departLane='random' departSpeed='10' />
    <vehicle id='N_S_113' type='standard_car' route='N_S' depart='285.0' departLane='random' departSpeed='10' />
    <vehicle id='W_E_114' type='standard_car' route='W_E' depart='287.0' departLane='random' departSpeed='10' />
    <vehicle id='W_E_115' type='standard_car' route='W_E' depart='289.0' departLane='random' departSpeed='10' />
    <vehicle id='N_S_116' type='standard_car' route='N_S' depart='289.0' departLane='random' departSpeed='10' />
    <vehicle id='N_W_117' type='standard_car' route='N_W' depart='289.0' departLane='random' departSpeed='10' />
    <vehicle id='N_W_118' type='standard_car' route='N_W' depart='290.0' departLane='random' departSpeed='10' />
    <vehicle id='E_N_119' type='standard_car' route='E_N' depart='290.0' departLane='random' departSpeed='10' />
    <vehicle id='E_W_120' type='standard_car' route='E_W' depart='292.0' departLane='random' departSpeed='10' />
    <vehicle id='N_W_121' type='standard_car' route='N_W' depart='292.0' departLane='random' departSpeed='10' />
    <vehicle id='S_N_122' type='standard_car' route='S_N' depart='295.0' departLane='random' departSpeed='10' />
    <vehicle id='E_N_123' type='standard_car' route='E_N' depart='296.0' departLane='random' departSpeed='10' />
    <vehicle id='N_S_124' type='standard_car' route='N_S' depart='299.0' departLane='random' departSpeed='10' />
    <vehicle id='W_S_125' type='standard_car' route='W_S' depart='299.0' departLane='random' departSpeed='10' />
    <vehicle id='W_E_126' type='standard_car' route='W_E' depart='302.0' departLane='random' departSpeed='10' />
    <vehicle id='N_S_127' type='standard_car' route='N_S' depart='302.0' departLane='random' departSpeed='10' />
    <vehicle id='E_W_128' type='standard_car' route='E_W' depart='304.0' departLane='random' departSpeed='10' />
    <vehicle id='S_N_129' type='standard_car' route='S_N' depart='307.0' departLane='random' departSpeed='10' />
    <vehicle id='W_S_130' type='standard_car' route='W_S' depart='312.0' departLane='random' departSpeed='10' />
    <vehicle id='W_E_131' type='standard_car' route='W_E' depart='316.0' departLane='random' departSpeed='10' />
    <vehicle id='W_E_132' type='standard_car' route='W_E' depart='316.0' departLane='random' departSpeed='10' />
    <vehicle id='E_N_133' type='standard_car' route='E_N' depart='317.0' departLane='random' departSpeed='10' />
    <vehicle id='E_N_134' type='standard_car' route='E_N' depart='319.0' departLane='random' departSpeed='10' />
    <vehicle id='N_W_135' type='standard_car' route='N_W' depart='323.0' departLane='random' departSpeed='10' />
    <vehicle id='W_S_136' type='standard_car' route='W_S' depart='324.0' departLane='random' departSpeed='10' />
    <vehicle id='E_N_137' type='standard_car' route='E_N' depart='324.0' departLane='random' departSpeed='10' />
    <vehicle id='W_E_138' type='standard_car' route='W_E' depart='327.0' departLane='random' departSpeed='10' />
    <vehicle id='W_E_139' type='standard_car' route='W_E' depart='327.0' departLane='random' departSpeed='10' />
    <vehicle id='E_N_140' type='standard_car' route='E_N' depart='329.0' departLane='random' departSpeed='10' />
    <vehicle id='N_W_141' type='standard_car' route='N_W' depart='330.0' departLane='random' departSpeed='10' />
    <vehicle id='S_N_142' type='standard_car' route='S_N' depart='330.0' departLane='random' departSpeed='10' />
    <vehicle id='N_S_143' type='standard_car' route='N_S' depart='333.0' departLane='random' departSpeed='10' />
    <vehicle id='E_W_144' type='standard_car' route='E_W' depart='333.0' departLane='random' departSpeed='10' />
    <vehicle id='N_S_145' type='standard_car' route='N_S' depart='333.0' departLane='random' departSpeed='10' />
    <vehicle id='W_E_146' type='standard_car' route='W_E' depart='334.0' departLane='random' departSpeed='10' />
    <vehicle id='E_W_147' type='standard_car' route='E_W' depart='335.0' departLane='random' departSpeed='10' />
    <vehicle id='E_N_148' type='standard_car' route='E_N' depart='336.0' departLane='random' departSpeed='10' />
    <vehicle id='E_W_149' type='standard_car' route='E_W' depart='337.0' departLane='random' departSpeed='10' />
    <vehicle id='W_S_150' type='standard_car' route='W_S' depart='337.0' departLane='random' departSpeed='10' />
    <vehicle id='N_W_151' type='standard_car' route='N_W' depart='338.0' departLane='random' departSpeed='10' />
    <vehicle id='E_N_152' type='standard_car' route='E_N' depart='339.0' departLane='random' departSpeed='10' />
    <vehicle id='W_E_153' type='standard_car' route='W_E' depart='339.0' departLane='random' departSpeed='10' />
    <vehicle id='W_S_154' type='standard_car' route='W_S' depart='340.0' departLane='random' departSpeed='10' />
    <vehicle id='W_E_155' type='standard_car' route='W_E' depart='342.0' departLane='random' departSpeed='10' />
    <vehicle id='S_N_156' type='standard_car' route='S_N' depart='342.0' departLane='random' departSpeed='10' />
    <vehicle id='S_N_157' type='standard_car' route='S_N' depart='344.0' departLane='random' departSpeed='10' />
    <vehicle id='E_W_158' type='standard_car' route='E_W' depart='348.0' departLane='random' departSpeed='10' />
    <vehicle id='E_W_159' type='standard_car' route='E_W' depart='353.0' departLane='random' departSpeed='10' />
    <vehicle id='E_W_160' type='standard_car' route='E_W' depart='354.0' departLane='random' departSpeed='10' />
    <vehicle id='E_W_161' type='standard_car' route='E_W' depart='354.0' departLane='random' departSpeed='10' />
    <vehicle id='N_W_162' type='standard_car' route='N_W' depart='355.0' departLane='random' departSpeed='10' />
    <vehicle id='W_S_163' type='standard_car' route='W_S' depart='356.0' departLane='random' departSpeed='10' />
    <vehicle id='E_W_164' type='standard_car' route='E_W' depart='356.0' departLane='random' departSpeed='10' />
    <vehicle id='E_W_165' type='standard_car' route='E_W' depart='359.0' departLane='random' departSpeed='10' />
    <vehicle id='W_S_166' type='standard_car' route='W_S' depart='360.0' departLane='random' departSpeed='10' />
    <vehicle id='W_E_167' type='standard_car' route='W_E' depart='360.0' departLane='random' departSpeed='10' />
    <vehicle id='N_S_168' type='standard_car' route='N_S' depart='360.0' departLane='random' departSpeed='10' />
    <vehicle id='W_S_169' type='standard_car' route='W_S' depart='361.0' departLane='random' departSpeed='10' />
    <vehicle id='E_W_170' type='standard_car' route='E_W' depart='361.0' departLane='random' departSpeed='10' />
    <vehicle id='S_E_171' type='standard_car' route='S_E' depart='363.0' departLane='random' departSpeed='10' />
    <vehicle id='N_S_172' type='standard_car' route='N_S' depart='363.0' departLane='random' departSpeed='10' />
    <vehicle id='N_W_173' type='standard_car' route='N_W' depart='364.0' departLane='random' departSpeed='10' />
    <vehicle id='N_S_174' type='standard_car' route='N_S' depart='365.0' departLane='random' departSpeed='10' />
    <vehicle id='W_E_175' type='standard_car' route='W_E' depart='365.0' departLane='random' departSpeed='10' />
    <vehicle id='N_S_176' type='standard_car' route='N_S' depart='367.0' departLane='random' departSpeed='10' />
    <vehicle id='N_S_177' type='standard_car' route='N_S' depart='368.0' departLane='random' departSpeed='10' />
    <vehicle id='W_S_178' type='standard_car' route='W_S' depart='370.0' departLane='random' departSpeed='10' />
    <vehicle id='E_W_179' type='standard_car' route='E_W' depart='373.0' departLane='random' departSpeed='10' />
    <vehicle id='S_N_180' type='standard_car' route='S_N' depart='373.0' departLane='random' departSpeed='10' />
    <vehicle id='N_W_181' type='standard_car' route='N_W' depart='373.0' departLane='random' departSpeed='10' />
    <vehicle id='W_S_182' type='standard_car' route='W_S' depart='373.0' departLane='random' departSpeed='10' />
    <vehicle id='W_E_183' type='standard_car' route='W_E' depart='373.0' departLane='random' departSpeed='10' />
    <vehicle id='N_W_184' type='standard_car' route='N_W' depart='374.0' departLane='random' departSpeed='10' />
    <vehicle id='N_W_185' type='standard_car' route='N_W' depart='376.0' departLane='random' departSpeed='10' />
    <vehicle id='S_E_186' type='standard_car' route='S_E' depart='376.0' departLane='random' departSpeed='10' />
    <vehicle id='N_S_187' type='standard_car' route='N_S' depart='378.0' departLane='random' departSpeed='10' />
    <vehicle id='W_E_188' type='standard_car' route='W_E' depart='379.0' departLane='random' departSpeed='10' />
    <vehicle id='E_W_189' type='standard_car' route='E_W' depart='380.0' departLane='random' departSpeed='10' />
    <vehicle id='S_N_190' type='standard_car' route='S_N' depart='380.0' departLane='random' departSpeed='10' />
    <vehicle id='W_S_191' type='standard_car' route='W_S' depart='381.0' departLane='random' departSpeed='10' />
    <vehicle id='N_S_192' type='standard_car' route='N_S' depart='381.0' departLane='random' departSpeed='10' />
    <vehicle id='N_W_193' type='standard_car' route='N_W' depart='382.0' departLane='random' departSpeed='10' />
    <vehicle id='W_E_194' type='standard_car' route='W_E' depart='385.0' departLane='random' departSpeed='10' />
    <vehicle id='S_E_195' type='standard_car' route='S_E' depart='387.0' departLane='random' departSpeed='10' />
    <vehicle id='N_W_196' type='standard_car' route='N_W' depart='388.0' departLane='random' departSpeed='10' />
    <vehicle id='S_N_197' type='standard_car' route='S_N' depart='388.0' departLane='random' departSpeed='10' />
    <vehicle id='E_W_198' type='standard_car' route='E_W' depart='390.0' departLane='random' departSpeed='10' />
    <vehicle id='S_E_199' type='standard_car' route='S_E' depart='392.0' departLane='random' departSpeed='10' />
    <vehicle id='E_N_200' type='standard_car' route='E_N' depart='392.0' departLane='random' departSpeed='10' />
    <vehicle id='S_N_201' type='standard_car' route='S_N' depart='393.0' departLane='random' departSpeed='10' />
    <vehicle id='S_N_202' type='standard_car' route='S_N' depart='393.0' departLane='random' departSpeed='10' />
    <vehicle id='E_W_203' type='standard_car' route='E_W' depart='395.0' departLane='random' departSpeed='10' />
    <vehicle id='N_W_204' type='standard_car' route='N_W' depart='395.0' departLane='random' departSpeed='10' />
    <vehicle id='E_N_205' type='standard_car' route='E_N' depart='396.0' departLane='random' departSpeed='10' />
    <vehicle id='N_S_206' type='standard_car' route='N_S' depart='398.0' departLane='random' departSpeed='10' />
    <vehicle id='E_N_207' type='standard_car' route='E_N' depart='398.0' departLane='random' departSpeed='10' />
    <vehicle id='W_E_208' type='standard_car' route='W_E' depart='399.0' departLane='random' departSpeed='10' />
    <vehicle id='W_E_209' type='standard_car' route='W_E' depart='402.0' departLane='random' departSpeed='10' />
    <vehicle id='E_N_210' type='standard_car' route='E_N' depart='403.0' departLane='random' departSpeed='10' />
    <vehicle id='W_S_211' type='standard_car' route='W_S' depart='403.0' departLane='random' departSpeed='10' />
    <vehicle id='N_S_212' type='standard_car' route='N_S' depart='404.0' departLane='random' departSpeed='10' />
    <vehicle id='S_N_213' type='standard_car' route='S_N' depart='404.0' departLane='random' departSpeed='10' />
    <vehicle id='W_E_214' type='standard_car' route='W_E' depart='406.0' departLane='random' departSpeed='10' />
    <vehicle id='S_N_215' type='standard_car' route='S_N' depart='408.0' departLane='random' departSpeed='10' />
    <vehicle id='N_W_216' type='standard_car' route='N_W' depart='409.0' departLane='random' departSpeed='10' />
    <vehicle id='N_W_217' type='standard_car' route='N_W' depart='410.0' departLane='random' departSpeed='10' />
    <vehicle id='E_W_218' type='standard_car' route='E_W' depart='411.0' departLane='random' departSpeed='10' />
    <vehicle id='N_S_219' type='standard_car' route='N_S' depart='412.0' departLane='random' departSpeed='10' />
    <vehicle id='E_W_220' type='standard_car' route='E_W' depart='414.0' departLane='random' departSpeed='10' />
    <vehicle id='S_N_221' type='standard_car' route='S_N' depart='414.0' departLane='random' departSpeed='10' />
    <vehicle id='W_E_222' type='standard_car' route='W_E' depart='415.0' departLane='random' departSpeed='10' />
    <vehicle id='E_N_223' type='standard_car' route='E_N' depart='417.0' departLane='random' departSpeed='10' />
    <vehicle id='S_N_224' type='standard_car' route='S_N' depart='418.0' departLane='random' departSpeed='10' />
    <vehicle id='S_N_225' type='standard_car' route='S_N' depart='419.0' departLane='random' departSpeed='10' />
    <vehicle id='N_S_226' type='standard_car' route='N_S' depart='423.0' departLane='random' departSpeed='10' />
    <vehicle id='N_S_227' type='standard_car' route='N_S' depart='424.0' departLane='random' departSpeed='10' />
    <vehicle id='S_N_228' type='standard_car' route='S_N' depart='426.0' departLane='random' departSpeed='10' />
    <vehicle id='W_E_229' type='standard_car' route='W_E' depart='427.0' departLane='random' departSpeed='10' />
    <vehicle id='N_S_230' type='standard_car' route='N_S' depart='428.0' departLane='random' departSpeed='10' />
    <vehicle id='W_E_231' type='standard_car' route='W_E' depart='428.0' departLane='random' departSpeed='10' />
    <vehicle id='S_N_232' type='standard_car' route='S_N' depart='429.0' departLane='random' departSpeed='10' />
    <vehicle id='W_E_233' type='standard_car' route='W_E' depart='429.0' departLane='random' departSpeed='10' />
    <vehicle id='N_S_234' type='standard_car' route='N_S' depart='431.0' departLane='random' departSpeed='10' />
    <vehicle id='N_W_235' type='standard_car' route='N_W' depart='432.0' departLane='random' departSpeed='10' />
    <vehicle id='E_W_236' type='standard_car' route='E_W' depart='434.0' departLane='random' departSpeed='10' />
    <vehicle id='N_S_237' type='standard_car' route='N_S' depart='435.0' departLane='random' departSpeed='10' />
    <vehicle id='N_S_238' type='standard_car' route='N_S' depart='435.0' departLane='random' departSpeed='10' />
    <vehicle id='S_N_239' type='standard_car' route='S_N' depart='437.0' departLane='random' departSpeed='10' />
    <vehicle id='N_W_240' type='standard_car' route='N_W' depart='439.0' departLane='random' departSpeed='10' />
    <vehicle id='N_S_241' type='standard_car' route='N_S' depart='440.0' departLane='random' departSpeed='10' />
    <vehicle id='W_S_242' type='standard_car' route='W_S' depart='440.0' departLane='random' departSpeed='10' />
    <vehicle id='S_N_243' type='standard_car' route='S_N' depart='443.0' departLane='random' departSpeed='10' />
    <vehicle id='N_S_244' type='standard_car' route='N_S' depart='444.0' departLane='random' departSpeed='10' />
    <vehicle id='N_S_245' type='standard_car' route='N_S' depart='445.0' departLane='random' departSpeed='10' />
    <vehicle id='S_E_246' type='standard_car' route='S_E' depart='445.0' departLane='random' departSpeed='10' />
    <vehicle id='E_W_247' type='standard_car' route='E_W' depart='446.0' departLane='random' departSpeed='10' />
    <vehicle id='W_S_248' type='standard_car' route='W_S' depart='447.0' departLane='random' departSpeed='10' />
    <vehicle id='E_N_249' type='standard_car' route='E_N' depart='447.0' departLane='random' departSpeed='10' />
    <vehicle id='W_E_250' type='standard_car' route='W_E' depart='448.0' departLane='random' departSpeed='10' />
    <vehicle id='S_E_251' type='standard_car' route='S_E' depart='448.0' departLane='random' departSpeed='10' />
    <vehicle id='E_W_252' type='standard_car' route='E_W' depart='449.0' departLane='random' departSpeed='10' />
    <vehicle id='N_S_253' type='standard_car' route='N_S' depart='450.0' departLane='random' departSpeed='10' />
    <vehicle id='S_N_254' type='standard_car' route='S_N' depart='451.0' departLane='random' departSpeed='10' />
    <vehicle id='N_S_255' type='standard_car' route='N_S' depart='451.0' departLane='random' departSpeed='10' />
    <vehicle id='W_E_256' type='standard_car' route='W_E' depart='451.0' departLane='random' departSpeed='10' />
    <vehicle id='S_E_257' type='standard_car' route='S_E' depart='452.0' departLane='random' departSpeed='10' />
    <vehicle id='S_N_258' type='standard_car' route='S_N' depart='454.0' departLane='random' departSpeed='10' />
    <vehicle id='W_E_259' type='standard_car' route='W_E' depart='454.0' departLane='random' departSpeed='10' />