<routes>
    <vType id="standard_car" length="5.0" maxSpeed="15" minGap="2.5" accel="2.0" decel="4.5" />
    <route id="N_S" edges="road_1_2_3 road_1_1_3"/>
    <route id="N_E" edges="road_1_2_3 road_1_1_0"/>
    <route id="N_W" edges="road_1_2_3 road_1_1_2"/>
    <route id="S_W" edges="road_1_0_1 road_1_1_2"/>
    <route id="S_E" edges="road_1_0_1 road_1_1_0"/>
    <route id="S_N" edges="road_1_0_1 road_1_1_1"/>

    <route id="W_E" edges="road_0_1_0 road_1_1_0"/>
    <route id="W_N" edges="road_0_1_0 road_1_1_1"/>
    <route id="W_S" edges="road_0_1_0 road_1_1_3"/>
    <route id="E_N" edges="road_2_1_2 road_1_1_1"/>
    <route id="E_S" edges="road_2_1_2 road_1_1_3"/>
    <route id="E_W" edges="road_2_1_2 road_1_1_2"/>
            
    <vehicle id='N_S_0' type='standard_car' route='N_S' depart='24.0' departLane='random' departSpeed='10' />
    <vehicle id='S_N_1' type='standard_car' route='S_N' depart='29.0' departLane='random' departSpeed='10' />
    <vehicle id='S_E_2' type='standard_car' route='S_E' depart='38.0' departLane='random' departSpeed='10' />
    <vehicle id='N_S_3' type='standard_car' route='N_S' depart='42.0' departLane='random' departSpeed='10' />
    <vehicle id='W_S_4' type='standard_car' route='W_S' depart='57.0' departLane='random' departSpeed='10' />
    <vehicle id='S_E_5' type='standard_car' route='S_E' depart='61.0' departLane='random' departSpeed='10' />
    <vehicle id='S_N_6' type='standard_car' route='S_N' depart='70.0' departLane='random' departSpeed='10' />
    <vehicle id='E_W_7' type='standard_car' route='E_W' depart='73.0' departLane='random' departSpeed='10' />
    <vehicle id='S_E_8' type='standard_car' route='S_E' depart='75.0' departLane='random' departSpeed='10' />
    <vehicle id='E_N_9' type='standard_car' route='E_N' depart='77.0' departLane='random' departSpeed='10' />
    <vehicle id='E_W_10' type='standard_car' route='E_W' depart='98.0' departLane='random' departSpeed='10' />
    <vehicle id='W_E_11' type='standard_car' route='W_E' depart='103.0' departLane='random' departSpeed='10' />
    <vehicle id='W_S_12' type='standard_car' route='W_S' depart='105.0' departLane='random' departSpeed='10' />
    <vehicle id='W_E_13' type='standard_car' route='W_E' depart='107.0' departLane='random' departSpeed='10' />
    <vehicle id='W_E_14' type='standard_car' route='W_E' depart='107.0' departLane='random' departSpeed='10' />
    <vehicle id='N_S_15' type='standard_car' route='N_S' depart='111.0' departLane='random' departSpeed='10' />
    <vehicle id='N_S_16' type='standard_car' route='N_S' depart='112.0' departLane='random' departSpeed='10' />
    <vehicle id='E_N_17' type='standard_car' route='E_N' depart='114.0' departLane='random' departSpeed='10' />
    <vehicle id='W_E_18' type='standard_car' route='W_E' depart='120.0' departLane='random' departSpeed='10' />
    <vehicle id='W_E_19' type='standard_car' route='W_E' depart='136.0' departLane='random' departSpeed='10' />
    <vehicle id='S_N_20' type='standard_car' route='S_N' depart='143.0' departLane='random' departSpeed='10' />
    <vehicle id='S_E_21' type='standard_car' route='S_E' depart='147.0' departLane='random' departSpeed='10' />
    <vehicle id='S_N_22' type='standard_car' route='S_N' depart='149.0' departLane='random' departSpeed='10' />
    <vehicle id='E_W_23' type='standard_car' route='E_W' depart='150.0' departLane='random' departSpeed='10' />
    <vehicle id='N_W_24' type='standard_car' route='N_W' depart='154.0' departLane='random' departSpeed='10' />
    <vehicle id='E_W_25' type='standard_car' route='E_W' depart='155.0' departLane='random' departSpeed='10' />
    <vehicle id='N_S_26' type='standard_car' route='N_S' depart='155.0' departLane='random' departSpeed='10' />
    <vehicle id='S_E_27' type='standard_car' route='S_E' depart='158.0' departLane='random' departSpeed='10' />
    <vehicle id='S_N_28' type='standard_car' route='S_N' depart='163.0' departLane='random' departSpeed='10' />
    <vehicle id='E_N_29' type='standard_car' route='E_N' depart='171.0' departLane='random' departSpeed='10' />
    <vehicle id='N_W_30' type='standard_car' route='N_W' depart='174.0' departLane='random' departSpeed='10' />
    <vehicle id='S_E_31' type='standard_car' route='S_E' depart='176.0' departLane='random' departSpeed='10' />
    <vehicle id='E_W_32' type='standard_car' route='E_W' depart='176.0' departLane='random' departSpeed='10' />
    <vehicle id='E_N_33' type='standard_car' route='E_N' depart='179.0' departLane='random' departSpeed='10' />
    <vehicle id='E_W_34' type='standard_car' route='E_W' depart='181.0' departLane='random' departSpeed='10' />
    <vehicle id='E_W_35' type='standard_car' route='E_W' depart='182.0' departLane='random' departSpeed='10' />
    <vehicle id='S_E_36' type='standard_car' route='S_E' depart='182.0' departLane='random' departSpeed='10' />
    <vehicle id='W_E_37' type='standard_car' route='W_E' depart='186.0' departLane='random' departSpeed='10' />
    <vehicle id='S_E_38' type='standard_car' route='S_E' depart='200.0' departLane='random' departSpeed='10' />
    <vehicle id='S_E_39' type='standard_car' route='S_E' depart='200.0' departLane='random' departSpeed='10' />
    <vehicle id='W_E_40' type='standard_car' route='W_E' depart='200.0' departLane='random' departSpeed='10' />
    <vehicle id='N_W_41' type='standard_car' route='N_W' depart='200.0' departLane='random' departSpeed='10' />
    <vehicle id='E_N_42' type='standard_car' route='E_N' depart='201.0' departLane='random' departSpeed='10' />
    <vehicle id='E_W_43' type='standard_car' route='E_W' depart='202.0' departLane='random' departSpeed='10' />
    <vehicle id='N_W_44' type='standard_car' route='N_W' depart='203.0' departLane='random' departSpeed='10' />
    <vehicle id='E_W_45' type='standard_car' route='E_W' depart='203.0' departLane='random' departSpeed='10' />
    <vehicle id='N_W_46' type='standard_car' route='N_W' depart='204.0' departLane='random' departSpeed='10' />
    <vehicle id='N_S_47' type='standard_car' route='N_S' depart='205.0' departLane='random' departSpeed='10' />
    <vehicle id='E_W_48' type='standard_car' route='E_W' depart='205.0' departLane='random' departSpeed='10' />
    <vehicle id='N_S_49' type='standard_car' route='N_S' depart='206.0' departLane='random' departSpeed='10' />
    <vehicle id='N_W_50' type='standard_car' route='N_W' depart='212.0' departLane='random' departSpeed='10' />
    <vehicle id='S_N_51' type='standard_car' route='S_N' depart='215.0' departLane='random' departSpeed='10' />
    <vehicle id='W_S_52' type='standard_car' route='W_S' depart='215.0' departLane='random' departSpeed='10' />
    <vehicle id='S_E_53' type='standard_car' route='S_E' depart='215.0' departLane='random' departSpeed='10' />
    <vehicle id='E_W_54' type='standard_car' route='E_W' depart='216.0' departLane='random' departSpeed='10' />
    <vehicle id='W_E_55' type='standard_car' route='W_E' depart='216.0' departLane='random' departSpeed='10' />
    <vehicle id='N_W_56' type='standard_car' route='N_W' depart='217.0' departLane='random' departSpeed='10' />
    <vehicle id='N_S_57' type='standard_car' route='N_S' depart='220.0' departLane='random' departSpeed='10' />
    <vehicle id='N_S_58' type='standard_car' route='N_S' depart='222.0' departLane='random' departSpeed='10' />
    <vehicle id='E_W_59' type='standard_car' route='E_W' depart='222.0' departLane='random' departSpeed='10' />
    <vehicle id='N_S_60' type='standard_car' route='N_S' depart='228.0' departLane='random' departSpeed='10' />
    <vehicle id='S_E_61' type='standard_car' route='S_E' depart='230.0' departLane='random' departSpeed='10' />
    <vehicle id='S_E_62' type='standard_car' route='S_E' depart='230.0' departLane='random' departSpeed='10' />
    <vehicle id='W_S_63' type='standard_car' route='W_S' depart='230.0' departLane='random' departSpeed='10' />
    <vehicle id='S_E_64' type='standard_car' route='S_E' depart='232.0' departLane='random' departSpeed='10' />
    <vehicle id='S_N_65' type='standard_car' route='S_N' depart='235.0' departLane='random' departSpeed='10' />
    <vehicle id='N_S_66' type='standard_car' route='N_S' depart='238.0' departLane='random' departSpeed='10' />
    <vehicle id='W_E_67' type='standard_car' route='W_E' depart='241.0' departLane='random' departSpeed='10' />
    <vehicle id='E_W_68' type='standard_car' route='E_W' depart='242.0' departLane='random' departSpeed='10' />
    <vehicle id='E_N_69' type='standard_car' route='E_N' depart='242.0' departLane='random' departSpeed='10' />
    <vehicle id='S_N_70' type='standard_car' route='S_N' depart='242.0' departLane='random' departSpeed='10' />
    <vehicle id='N_W_71' type='standard_car' route='N_W' depart='244.0' departLane='random' departSpeed='10' />
    <vehicle id='E_W_72' type='standard_car' route='E_W' depart='245.0' departLane='random' departSpeed='10' />
    <vehicle id='E_W_73' type='standard_car' route='E_W' depart='246.0' departLane='random' departSpeed='10' />
    <vehicle id='N_S_74' type='standard_car' route='N_S' depart='250.0' departLane='random' departSpeed='10' />
    <vehicle id='N_W_75' type='standard_car' route='N_W' depart='250.0' departLane='random' departSpeed='10' />
    <vehicle id='W_E_76' type='standard_car' route='W_E' depart='250.0' departLane='random' departSpeed='10' />
    <vehicle id='S_N_77' type='standard_car' route='S_N' depart='252.0' departLane='random' departSpeed='10' />
    <vehicle id='N_S_78' type='standard_car' route='N_S' depart='253.0' departLane='random' departSpeed='10' />
    <vehicle id='E_N_79' type='standard_car' route='E_N' depart='256.0' departLane='random' departSpeed='10' />
    <vehicle id='S_N_80' type='standard_car' route='S_N' depart='257.0' departLane='random' departSpeed='10' />
    <vehicle id='N_S_81' type='standard_car' route='N_S' depart='257.0' departLane='random' departSpeed='10' />
    <vehicle id='S_E_82' type='standard_car' route='S_E' depart='261.0' departLane='random' departSpeed='10' />
    <vehicle id='W_S_83' type='standard_car' route='W_S' depart='263.0' departLane='random' departSpeed='10' />
    <vehicle id='E_N_84' type='standard_car' route='E_N' depart='264.0' departLane='random' departSpeed='10' />
    <vehicle id='N_S_85' type='standard_car' route='N_S' depart='266.0' departLane='random' departSpeed='10' />
    <vehicle id='W_E_86' type='standard_car' route='W_E' depart='269.0' departLane='random' departSpeed='10' />
    <vehicle id='N_S_87' type='standard_car' route='N_S' depart='272.0' departLane='random' departSpeed='10' />
    <vehicle id='E_N_88' type='standard_car' route='E_N' depart='272.0' departLane='random' departSpeed='10' />
    <vehicle id='N_S_89' type='standard_car' route='N_S' depart='273.0' departLane='random' departSpeed='10' />
    <vehicle id='N_S_90' type='standard_car' route='N_S' depart='276.0' departLane='random' departSpeed='10' />
    <vehicle id='N_S_91' type='standard_car' route='N_S' depart='277.0' departLane='random' departSpeed='10' />
    <vehicle id='W_E_92' type='standard_car' route='W_E' depart='277.0' departLane='random' departSpeed='10' />
    <vehicle id='N_S_93' type='standard_car' route='N_S' depart='284.0' departLane='random' departSpeed='10' />
    <vehicle id='W_E_94' type='standard_car' route='W_E' depart='284.0' departLane='random' departSpeed='10' />
    <vehicle id='S_E_95' type='standard_car' route='S_E' depart='285.0' departLane='random' departSpeed='10' />
    <vehicle id='W_S_96' type='standard_car' route='W_S' depart='289.0' departLane='random' departSpeed='10' />
    <vehicle id='S_N_97' type='standard_car' route='S_N' depart='289.0' departLane='random' departSpeed='10' />
    <vehicle id='W_E_98' type='standard_car' route='W_E' depart='292.0' departLane='random' departSpeed='10' />
    <vehicle id='S_N_99' type='standard_car' route='S_N' depart='293.0' departLane='random' departSpeed='10' />
    <vehicle id='E_W_100' type='standard_car' route='E_W' depart='293.0' departLane='random' departSpeed='10' />
    <vehicle id='S_E_101' type='standard_car' route='S_E' depart='293.0' departLane='random' departSpeed='10' />
    <vehicle id='S_E_102' type='standard_car' route='S_E' depart='295.0' departLane='random' departSpeed='10' />
    <vehicle id='W_E_103' type='standard_car' route='W_E' depart='296.0' departLane='random' departSpeed='10' />
    <vehicle id='E_W_104' type='standard_car' route='E_W' depart='298.0' departLane='random' departSpeed='10' />
    <vehicle id='N_W_105' type='standard_car' route='N_W' depart='301.0' departLane='random' departSpeed='10' />
    <vehicle id='N_S_106' type='standard_car' route='N_S' depart='301.0' departLane='random' departSpeed='10' />
    <vehicle id='W_S_107' type='standard_car' route='W_S' depart='302.0' departLane='random' departSpeed='10' />
    <vehicle id='E_W_108' type='standard_car' route='E_W' depart='303.0' departLane='random' departSpeed='10' />
    <vehicle id='N_S_109' type='standard_car' route='N_S' depart='303.0' departLane='random' departSpeed='10' />
    <vehicle id='N_S_110' type='standard_car' route='N_S' depart='303.0' departLane='random' departSpeed='10' />
    <vehicle id='N_W_111' type='standard_car' route='N_W' depart='303.0' departLane='random' departSpeed='10' />
    <vehicle id='W_E_112' type='standard_car' route='W_E' depart='305.0' departLane='random' departSpeed='10' />
    <vehicle id='W_S_113' type='standard_car' route='W_S' depart='310.0' departLane='random' departSpeed='10' />
    <vehicle id='S_N_114' type='standard_car' route='S_N' depart='311.0' departLane='random' departSpeed='10' />
    <vehicle id='S_N_115' type='standard_car' route='S_N' depart='311.0' departLane='random' departSpeed='10' />
    <vehicle id='S_N_116' type='standard_car' route='S_N' depart='312.0' departLane='random' departSpeed='10' />
    <vehicle id='W_S_117' type='standard_car' route='W_S' depart='315.0' departLane='random' departSpeed='10' />
    <vehicle id='N_W_118' type='standard_car' route='N_W' depart='315.0' departLane='random' departSpeed='10' />
    <vehicle id='E_N_119' type='standard_car' route='E_N' depart='317.0' departLane='random' departSpeed='10' />
    <vehicle id='S_N_120' type='standard_car' route='S_N' depart='317.0' departLane='random' departSpeed='10' />
    <vehicle id='N_S_121' type='standard_car' route='N_S' depart='318.0' departLane='random' departSpeed='10' />
    <vehicle id='N_W_122' type='standard_car' route='N_W' depart='320.0' departLane='random' departSpeed='10' />
    <vehicle id='S_N_123' type='standard_car' route='S_N' depart='321.0' departLane='random' departSpeed='10' />
    <vehicle id='W_S_124' type='standard_car' route='W_S' depart='321.0' departLane='random' departSpeed='10' />
    <vehicle id='W_S_125' type='standard_car' route='W_S' depart='322.0' departLane='random' departSpeed='10' />
    <vehicle id='S_N_126' type='standard_car' route='S_N' depart='322.0' departLane='random' departSpeed='10' />
    <vehicle id='N_S_127' type='standard_car' route='N_S' depart='323.0' departLane='random' departSpeed='10' />
    <vehicle id='E_N_128' type='standard_car' route='E_N' depart='323.0' departLane='random' departSpeed='10' />
    <vehicle id='W_E_129' type='standard_car' route='W_E' depart='325.0' departLane='random' departSpeed='10' />
    <vehicle id='E_W_130' type='standard_car' route='E_W' depart='326.0' departLane='random' departSpeed='10' />
    <vehicle id='N_S_131' type='standard_car' route='N_S' depart='329.0' departLane='random' departSpeed='10' />
    <vehicle id='N_S_132' type='standard_car' route='N_S' depart='330.0' departLane='random' departSpeed='10' />
    <vehicle id='W_S_133' type='standard_car' route='W_S' depart='331.0' departLane='random' departSpeed='10' />
    <vehicle id='S_E_134' type='standard_car' route='S_E' depart='332.0' departLane='random' departSpeed='10' />
    <vehicle id='N_W_135' type='standard_car' route='N_W' depart='332.0' departLane='random' departSpeed='10' />
    <vehicle id='E_W_136' type='standard_car' route='E_W' depart='336.0' departLane='random' departSpeed='10' />
    <vehicle id='N_S_137' type='standard_car' route='N_S' depart='337.0' departLane='random' departSpeed='10' />
    <vehicle id='S_N_138' type='standard_car' route='S_N' depart='337.0' departLane='random' departSpeed='10' />
    <vehicle id='N_S_139' type='standard_car' route='N_S' depart='338.0' departLane='random' departSpeed='10' />
    <vehicle id='N_S_140' type='standard_car' route='N_S' depart='338.0' departLane='random' departSpeed='10' />
    <vehicle id='W_S_141' type='standard_car' route='W_S' depart='338.0' departLane='random' departSpeed='10' />
    <vehicle id='N_S_142' type='standard_car' route='N_S' depart='341.0' departLane='random' departSpeed='10' />
    <vehicle id='E_W_143' type='standard_car' route='E_W' depart='342.0' departLane='random' departSpeed='10' />
    <vehicle id='N_S_144' type='standard_car' route='N_S' depart='344.0' departLane='random' departSpeed='10' />
    <vehicle id='S_E_145' type='standard_car' route='S_E' depart='344.0' departLane='random' departSpeed='10' />
    <vehicle id='W_E_146' type='standard_car' route='W_E' depart='345.0' departLane='random' departSpeed='10' />
    <vehicle id='S_N_147' type='standard_car' route='S_N' depart='346.0' departLane='random' departSpeed='10' />
    <vehicle id='E_W_148' type='standard_car' route='E_W' depart='347.0' departLane='random' departSpeed='10' />
    <vehicle id='E_N_149' type='standard_car' route='E_N' depart='347.0' departLane='random' departSpeed='10' />
    <vehicle id='N_S_150' type='standard_car' route='N_S' depart='347.0' departLane='random' departSpeed='10' />
    <vehicle id='W_E_151' type='standard_car' route='W_E' depart='348.0' departLane='random' departSpeed='10' />
    <vehicle id='S_N_152' type='standard_car' route='S_N' depart='348.0' departLane='random' departSpeed='10' />
    <vehicle id='N_S_153' type='standard_car' route='N_S' depart='349.0' departLane='random' departSpeed='10' />
    <vehicle id='S_N_154' type='standard_car' route='S_N' depart='350.0' departLane='random' departSpeed='10' />
    <vehicle id='E_W_155' type='standard_car' route='E_W' depart='353.0' departLane='random' departSpeed='10' />
    <vehicle id='W_S_156' type='standard_car' route='W_S' depart='354.0' departLane='random' departSpeed='10' />
    <vehicle id='W_E_157' type='standard_car' route='W_E' depart='354.0' departLane='random' departSpeed='10' />
    <vehicle id='W_E_158' type='standard_car' route='W_E' depart='355.0' departLane='random' departSpeed='10' />
    <vehicle id='E_W_159' type='standard_car' route='E_W' depart='356.0' departLane='random' departSpeed='10' />
    <vehicle id='S_N_160' type='standard_car' route='S_N' depart='356.0' departLane='random' departSpeed='10' />
    <vehicle id='S_N_161' type='standard_car' route='S_N' depart='357.0' departLane='random' departSpeed='10' />
    <vehicle id='S_N_162' type='standard_car' route='S_N' depart='357.0' departLane='random' departSpeed='10' />
    <vehicle id='E_N_163' type='standard_car' route='E_N' depart='357.0' departLane='random' departSpeed='10' />
    <vehicle id='N_S_164' type='standard_car' route='N_S' depart='359.0' departLane='random' departSpeed='10' />
    <vehicle id='S_E_165' type='standard_car' route='S_E' depart='360.0' departLane='random' departSpeed='10' />
    <vehicle id='N_S_166' type='standard_car' route='N_S' depart='360.0' departLane='random' departSpeed='10' />
    <vehicle id='E_N_167' type='standard_car' route='E_N' depart='361.0' departLane='random' departSpeed='10' />
    <vehicle id='S_N_168' type='standard_car' route='S_N' depart='362.0' departLane='random' departSpeed='10' />
    <vehicle id='N_W_169' type='standard_car' route='N_W' depart='364.0' departLane='random' departSpeed='10' />
    <vehicle id='N_W_170' type='standard_car' route='N_W' depart='366.0' departLane='random' departSpeed='10' />
    <vehicle id='N_W_171' type='standard_car' route='N_W' depart='368.0' departLane='random' departSpeed='10' />
    <vehicle id='S_N_172' type='standard_car' route='S_N' depart='368.0' departLane='random' departSpeed='10' />
    <vehicle id='S_N_173' type='standard_car' route='S_N' depart='368.0' departLane='random' departSpeed='10' />
    <vehicle id='E_N_174' type='standard_car' route='E_N' depart='368.0' departLane='random' departSpeed='10' />
    <vehicle id='N_W_175' type='standard_car' route='N_W' depart='372.0' departLane='random' departSpeed='10' />
    <vehicle id='E_W_176' type='standard_car' route='E_W' depart='372.0' departLane='random' departSpeed='10' />
    <vehicle id='E_W_177' type='standard_car' route='E_W' depart='373.0' departLane='random' departSpeed='10' />
    <vehicle id='W_S_178' type='standard_car' route='W_S' depart='376.0' departLane='random' departSpeed='10' />
    <vehicle id='N_W_179' type='standard_car' route='N_W' depart='377.0' departLane='random' departSpeed='10' />
    <vehicle id='S_E_180' type='standard_car' route='S_E' depart='378.0' departLane='random' departSpeed='10' />
    <vehicle id='W_E_181' type='standard_car' route='W_E' depart='379.0' departLane='random' departSpeed='10' />
    <vehicle id='W_S_182' type='standard_car' route='W_S' depart='379.0' departLane='random' departSpeed='10' />
    <vehicle id='N_S_183' type='standard_car' route='N_S' depart='380.0' departLane='random' departSpeed='10' />
    <vehicle id='N_W_184' type='standard_car' route='N_W' depart='380.0' departLane='random' departSpeed='10' />
    <vehicle id='N_S_185' type='standard_car' route='N_S' depart='380.0' departLane='random' departSpeed='10' />
    <vehicle id='W_S_186' type='standard_car' route='W_S' depart='381.0' departLane='random' departSpeed='10' />
    <vehicle id='E_N_187' type='standard_car' route='E_N' depart='383.0' departLane='random' departSpeed='10' />
    <vehicle id='E_N_188' type='standard_car' route='E_N' depart='385.0' departLane='random' departSpeed='10' />
    <vehicle id='S_E_189' type='standard_car' route='S_E' depart='386.0' departLane='random' departSpeed='10' />
    <vehicle id='E_W_190' type='standard_car' route='E_W' depart='391.0' departLane='random' departSpeed='10' />
    <vehicle id='E_N_191' type='standard_car' route='E_N' depart='391.0' departLane='random' departSpeed='10' />
    <vehicle id='E_W_192' type='standard_car' route='E_W' depart='392.0' departLane='random' departSpeed='10' />
    <vehicle id='E_W_193' type='standard_car' route='E_W' depart='392.0' departLane='random' departSpeed='10' />
    <vehicle id='W_S_194' type='standard_car' route='W_S' depart='394.0' departLane='random' departSpeed='10' />
    <vehicle id='E_W_195' type='standard_car' route='E_W' depart='394.0' departLane='random' departSpeed='10' />
    <vehicle id='W_E_196' type='standard_car' route='W_E' depart='394.0' departLane='random' departSpeed='10' />
    <vehicle id='E_N_197' type='standard_car' route='E_N' depart='395.0' departLane='random' departSpeed='10' />
    <vehicle id='W_S_198' type='standard_car' route='W_S' depart='397.0' departLane='random' departSpeed='10' />
    <vehicle id='W_S_199' type='standard_car' route='W_S' depart='399.0' departLane='random' departSpeed='10' />
    <vehicle id='S_N_200' type='standard_car' route='S_N' depart='399.0' departLane='random' departSpeed='10' />
    <vehicle id='S_E_201' type='standard_car' route='S_E' depart='401.0' departLane='random' departSpeed='10' />
    <vehicle id='E_W_202' type='standard_car' route='E_W' depart='402.0' departLane='random' departSpeed='10' />
    <vehicle id='N_S_203' type='standard_car' route='N_S' depart='404.0' departLane='random' departSpeed='10' />
    <vehicle id='S_E_204' type='standard_car' route='S_E' depart='405.0' departLane='random' departSpeed='10' />
    <vehicle id='W_S_205' type='standard_car' route='W_S' depart='406.0' departLane='random' departSpeed='10' />
    <vehicle id='E_W_206' type='standard_car' route='E_W' depart='407.0' departLane='random' departSpeed='10' />
    <vehicle id='E_N_207' type='standard_car' route='E_N' depart='407.0' departLane='random' departSpeed='10' />
    <vehicle id='S_N_208' type='standard_car' route='S_N' depart='408.0' departLane='random' departSpeed='10' />
    <vehicle id='E_N_209' type='standard_car' route='E_N' depart='410.0' departLane='random' departSpeed='10' />
    <vehicle id='N_W_210' type='standard_car' route='N_W' depart='411.0' departLane='random' departSpeed='10' />
    <vehicle id='S_E_211' type='standard_car' route='S_E' depart='411.0' departLane='random' departSpeed='10' />
    <vehicle id='N_S_212' type='standard_car' route='N_S' depart='412.0' departLane='random' departSpeed='10' />
    <vehicle id='S_E_213' type='standard_car' route='S_E' depart='412.0' departLane='random' departSpeed='10' />
    <vehicle id='N_W_214' type='standard_car' route='N_W' depart='412.0' departLane='random' departSpeed='10' />
    <vehicle id='E_N_215' type='standard_car' route='E_N' depart='412.0' departLane='random' departSpeed='10' />
    <vehicle id='N_S_216' type='standard_car' route='N_S' depart='414.0' departLane='random' departSpeed='10' />
    <vehicle id='E_W_217' type='standard_car' route='E_W' depart='414.0' departLane='random' departSpeed='10' />
    <vehicle id='E_W_218' type='standard_car' route='E_W' depart='415.0' departLane='random' departSpeed='10' />
    <vehicle id='S_N_219' type='standard_car' route='S_N' depart='417.0' departLane='random' departSpeed='10' />
    <vehicle id='S_E_220' type='standard_car' route='S_E' depart='417.0' departLane='random' departSpeed='10' />
    <vehicle id='N_S_221' type='standard_car' route='N_S' depart='418.0' departLane='random' departSpeed='10' />
    <vehicle id='W_S_222' type='standard_car' route='W_S' depart='419.0' departLane='random' departSpeed='10' />
    <vehicle id='S_N_223' type='standard_car' route='S_N' depart='420.0' departLane='random' departSpeed='10' />
    <vehicle id='N_S_224' type='standard_car' route='N_S' depart='420.0' departLane='random' departSpeed='10' />
    <vehicle id='N_S_225' type='standard_car' route='N_S' depart='421.0' departLane='random' departSpeed='10' />
    <vehicle id='W_E_226' type='standard_car' route='W_E' depart='422.0' departLane='random' departSpeed='10' />
    <vehicle id='N_W_227' type='standard_car' route='N_W' depart='423.0' departLane='random' departSpeed='10' />
    <vehicle id='W_E_228' type='standard_car' route='W_E' depart='423.0' departLane='random' departSpeed='10' />
    <vehicle id='N_W_229' type='standard_car' route='N_W' depart='425.0' departLane='random' departSpeed='10' />
    <vehicle id='S_N_230' type='standard_car' route='S_N' depart='425.0' departLane='random' departSpeed='10' />
    <vehicle id='S_N_231' type='standard_car' route='S_N' depart='426.0' departLane='random' departSpeed='10' />
    <vehicle id='E_W_232' type='standard_car' route='E_W' depart='426.0' departLane='random' departSpeed='10' />
    <vehicle id='N_S_233' type='standard_car' route='N_S' depart='429.0' departLane='random' departSpeed='10' />
    <vehicle id='N_S_234' type='standard_car' route='N_S' depart='430.0' departLane='random' departSpeed='10' />
    <vehicle id='E_N_235' type='standard_car' route='E_N' depart='431.0' departLane='random' departSpeed='10' />
    <vehicle id='W_S_236' type='standard_car' route='W_S' depart='431.0' departLane='random' departSpeed='10' />
    <vehicle id='N_S_237' type='standard_car' route='N_S' depart='434.0' departLane='random' departSpeed='10' />
    <vehicle id='N_S_238' type='standard_car' route='N_S' depart='437.0' departLane='random' departSpeed='10' />
    <vehicle id='W_S_239' type='standard_car' route='W_S' depart='437.0' departLane='random' departSpeed='10' />
    <vehicle id='W_S_240' type='standard_car' route='W_S' depart='438.0' departLane='random' departSpeed='10' />
    <vehicle id='N_W_241' type='standard_car' route='N_W' depart='439.0' departLane='random' departSpeed='10' />
    <vehicle id='W_S_242' type='standard_car' route='W_S' depart='439.0' departLane='random' departSpeed='10' />
    <vehicle id='S_E_243' type='standard_car' route='S_E' depart='440.0' departLane='random' departSpeed='10' />
    <vehicle id='S_N_244' type='standard_car' route='S_N' depart='440.0' departLane='random' departSpeed='10' />
    <vehicle id='W_S_245' type='standard_car' route='W_S' depart='441.0' departLane='random' departSpeed='10' />
    <vehicle id='N_W_246' type='standard_car' route='N_W' depart='441.0' departLane='random' departSpeed='10' />
    <vehicle id='E_W_247' type='standard_car' route='E_W' depart='443.0' departLane='random' departSpeed='10' />
    <vehicle id='S_E_248' type='standard_car' route='S_E' depart='443.0' departLane='random' departSpeed='10' />
    <vehicle id='W_E_249' type='standard_car' route='W_E' depart='444.0' departLane='random' departSpeed='10' />
    <vehicle id='S_N_250' type='standard_car' route='S_N' depart='444.0' departLane='random' departSpeed='10' />
    <vehicle id='S_N_251' type='standard_car' route='S_N' depart='445.0' departLane='random' departSpeed='10' />
    <vehicle id='E_N_252' type='standard_car' route='E_N' depart='445.0' departLane='random' departSpeed='10' />
    <vehicle id='S_N_253' type='standard_car' route='S_N' depart='445.0' departLane='random' departSpeed='10' />
    <vehicle id='W_E_254' type='standard_car' route='W_E' depart='445.0' departLane='random' departSpeed='10' />
    <vehicle id='S_E_255' type='standard_car' route='S_E' depart='445.0' departLane='random' departSpeed='10' />
    <vehicle id='E_N_256' type='standard_car' route='E_N' depart='446.0' departLane='random' departSpeed='10' />
    <vehicle id='N_S_257' type='standard_car' route='N_S' depart='448.0' departLane='random' departSpeed='10' />
    <vehicle id='E_N_258' type='standard_car' route='E_N' depart='449.0' departLane='random' departSpeed='10' />