<routes>
    <vType id="standard_car" length="5.0" maxSpeed="15" minGap="2.5" accel="2.0" decel="4.5" />
    <route id="N_S" edges="road_1_2_3 road_1_1_3"/>
    <route id="N_E" edges="road_1_2_3 road_1_1_0"/>
    <route id="N_W" edges="road_1_2_3 road_1_1_2"/>
    <route id="S_W" edges="road_1_0_1 road_1_1_2"/>
    <route id="S_E" edges="road_1_0_1 road_1_1_0"/>
    <route id="S_N" edges="road_1_0_1 road_1_1_1"/>

    <route id="W_E" edges="road_0_1_0 road_1_1_0"/>
    <route id="W_N" edges="road_0_1_0 road_1_1_1"/>
    <route id="W_S" edges="road_0_1_0 road_1_1_3"/>
    <route id="E_N" edges="road_2_1_2 road_1_1_1"/>
    <route id="E_S" edges="road_2_1_2 road_1_1_3"/>
    <route id="E_W" edges="road_2_1_2 road_1_1_2"/>
            
    <vehicle id='N_S_0' type='standard_car' route='N_S' depart='29.0' departLane='random' departSpeed='10' />
    <vehicle id='N_W_1' type='standard_car' route='N_W' depart='30.0' departLane='random' departSpeed='10' />
    <vehicle id='W_E_2' type='standard_car' route='W_E' depart='35.0' departLane='random' departSpeed='10' />
    <vehicle id='E_W_3' type='standard_car' route='E_W' depart='44.0' departLane='random' departSpeed='10' />
    <vehicle id='W_E_4' type='standard_car' route='W_E' depart='54.0' departLane='random' departSpeed='10' />
    <vehicle id='S_N_5' type='standard_car' route='S_N' depart='57.0' departLane='random' departSpeed='10' />
    <vehicle id='E_W_6' type='standard_car' route='E_W' depart='57.0' departLane='random' departSpeed='10' />
    <vehicle id='N_W_7' type='standard_car' route='N_W' depart='59.0' departLane='random' departSpeed='10' />
    <vehicle id='W_E_8' type='standard_car' route='W_E' depart='64.0' departLane='random' departSpeed='10' />
    <vehicle id='N_S_9' type='standard_car' route='N_S' depart='70.0' departLane='random' departSpeed='10' />
    <vehicle id='S_N_10' type='standard_car' route='S_N' depart='93.0' departLane='random' departSpeed='10' />
    <vehicle id='E_N_11' type='standard_car' route='E_N' depart='94.0' departLane='random' departSpeed='10' />
    <vehicle id='W_E_12' type='standard_car' route='W_E' depart='100.0' departLane='random' departSpeed='10' />
    <vehicle id='S_E_13' type='standard_car' route='S_E' depart='103.0' departLane='random' departSpeed='10' />
    <vehicle id='N_S_14' type='standard_car' route='N_S' depart='104.0' departLane='random' departSpeed='10' />
    <vehicle id='W_E_15' type='standard_car' route='W_E' depart='105.0' departLane='random' departSpeed='10' />
    <vehicle id='N_W_16' type='standard_car' route='N_W' depart='110.0' departLane='random' departSpeed='10' />
    <vehicle id='E_W_17' type='standard_car' route='E_W' depart='111.0' departLane='random' departSpeed='10' />
    <vehicle id='S_N_18' type='standard_car' route='S_N' depart='113.0' departLane='random' departSpeed='10' />
    <vehicle id='W_E_19' type='standard_car' route='W_E' depart='114.0' departLane='random' departSpeed='10' />
    <vehicle id='W_E_20' type='standard_car' route='W_E' depart='120.0' departLane='random' departSpeed='10' />
    <vehicle id='E_N_21' type='standard_car' route='E_N' depart='122.0' departLane='random' departSpeed='10' />
    <vehicle id='N_W_22' type='standard_car' route='N_W' depart='127.0' departLane='random' departSpeed='10' />
    <vehicle id='E_N_23' type='standard_car' route='E_N' depart='128.0' departLane='random' departSpeed='10' />
    <vehicle id='E_W_24' type='standard_car' route='E_W' depart='130.0' departLane='random' departSpeed='10' />
    <vehicle id='E_N_25' type='standard_car' route='E_N' depart='132.0' departLane='random' departSpeed='10' />
    <vehicle id='N_S_26' type='standard_car' route='N_S' depart='136.0' departLane='random' departSpeed='10' />
    <vehicle id='S_N_27' type='standard_car' route='S_N' depart='136.0' departLane='random' departSpeed='10' />
    <vehicle id='S_N_28' type='standard_car' route='S_N' depart='137.0' departLane='random' departSpeed='10' />
    <vehicle id='N_W_29' type='standard_car' route='N_W' depart='139.0' departLane='random' departSpeed='10' />
    <vehicle id='E_W_30' type='standard_car' route='E_W' depart='143.0' departLane='random' departSpeed='10' />
    <vehicle id='W_E_31' type='standard_car' route='W_E' depart='147.0' departLane='random' departSpeed='10' />
    <vehicle id='S_N_32' type='standard_car' route='S_N' depart='148.0' departLane='random' departSpeed='10' />
    <vehicle id='E_W_33' type='standard_car' route='E_W' depart='152.0' departLane='random' departSpeed='10' />
    <vehicle id='S_E_34' type='standard_car' route='S_E' depart='152.0' departLane='random' departSpeed='10' />
    <vehicle id='S_N_35' type='standard_car' route='S_N' depart='154.0' departLane='random' departSpeed='10' />
    <vehicle id='W_S_36' type='standard_car' route='W_S' depart='154.0' departLane='random' departSpeed='10' />
    <vehicle id='N_S_37' type='standard_car' route='N_S' depart='158.0' departLane='random' departSpeed='10' />
    <vehicle id='N_S_38' type='standard_car' route='N_S' depart='162.0' departLane='random' departSpeed='10' />
    <vehicle id='S_N_39' type='standard_car' route='S_N' depart='163.0' departLane='random' departSpeed='10' />
    <vehicle id='N_S_40' type='standard_car' route='N_S' depart='166.0' departLane='random' departSpeed='10' />
    <vehicle id='N_W_41' type='standard_car' route='N_W' depart='169.0' departLane='random' departSpeed='10' />
    <vehicle id='N_S_42' type='standard_car' route='N_S' depart='169.0' departLane='random' departSpeed='10' />
    <vehicle id='S_E_43' type='standard_car' route='S_E' depart='171.0' departLane='random' departSpeed='10' />
    <vehicle id='W_S_44' type='standard_car' route='W_S' depart='173.0' departLane='random' departSpeed='10' />
    <vehicle id='S_E_45' type='standard_car' route='S_E' depart='173.0' departLane='random' departSpeed='10' />
    <vehicle id='E_W_46' type='standard_car' route='E_W' depart='173.0' departLane='random' departSpeed='10' />
    <vehicle id='N_W_47' type='standard_car' route='N_W' depart='175.0' departLane='random' departSpeed='10' />
    <vehicle id='E_W_48' type='standard_car' route='E_W' depart='176.0' departLane='random' departSpeed='10' />
    <vehicle id='W_S_49' type='standard_car' route='W_S' depart='179.0' departLane='random' departSpeed='10' />
    <vehicle id='N_W_50' type='standard_car' route='N_W' depart='179.0' departLane='random' departSpeed='10' />
    <vehicle id='N_S_51' type='standard_car' route='N_S' depart='181.0' departLane='random' departSpeed='10' />
    <vehicle id='N_S_52' type='standard_car' route='N_S' depart='181.0' departLane='random' departSpeed='10' />
    <vehicle id='E_W_53' type='standard_car' route='E_W' depart='181.0' departLane='random' departSpeed='10' />
    <vehicle id='S_N_54' type='standard_car' route='S_N' depart='187.0' departLane='random' departSpeed='10' />
    <vehicle id='W_S_55' type='standard_car' route='W_S' depart='191.0' departLane='random' departSpeed='10' />
    <vehicle id='S_E_56' type='standard_car' route='S_E' depart='196.0' departLane='random' departSpeed='10' />
    <vehicle id='S_N_57' type='standard_car' route='S_N' depart='198.0' departLane='random' departSpeed='10' />
    <vehicle id='E_N_58' type='standard_car' route='E_N' depart='200.0' departLane='random' departSpeed='10' />
    <vehicle id='S_N_59' type='standard_car' route='S_N' depart='201.0' departLane='random' departSpeed='10' />
    <vehicle id='S_N_60' type='standard_car' route='S_N' depart='201.0' departLane='random' departSpeed='10' />
    <vehicle id='S_N_61' type='standard_car' route='S_N' depart='203.0' departLane='random' departSpeed='10' />
    <vehicle id='W_E_62' type='standard_car' route='W_E' depart='206.0' departLane='random' departSpeed='10' />
    <vehicle id='S_E_63' type='standard_car' route='S_E' depart='207.0' departLane='random' departSpeed='10' />
    <vehicle id='N_S_64' type='standard_car' route='N_S' depart='210.0' departLane='random' departSpeed='10' />
    <vehicle id='S_E_65' type='standard_car' route='S_E' depart='214.0' departLane='random' departSpeed='10' />
    <vehicle id='W_S_66' type='standard_car' route='W_S' depart='215.0' departLane='random' departSpeed='10' />
    <vehicle id='S_N_67' type='standard_car' route='S_N' depart='221.0' departLane='random' departSpeed='10' />
    <vehicle id='E_W_68' type='standard_car' route='E_W' depart='221.0' departLane='random' departSpeed='10' />
    <vehicle id='E_W_69' type='standard_car' route='E_W' depart='223.0' departLane='random' departSpeed='10' />
    <vehicle id='N_S_70' type='standard_car' route='N_S' depart='223.0' departLane='random' departSpeed='10' />
    <vehicle id='N_W_71' type='standard_car' route='N_W' depart='225.0' departLane='random' departSpeed='10' />
    <vehicle id='E_N_72' type='standard_car' route='E_N' depart='225.0' departLane='random' departSpeed='10' />
    <vehicle id='E_N_73' type='standard_car' route='E_N' depart='227.0' departLane='random' departSpeed='10' />
    <vehicle id='S_N_74' type='standard_car' route='S_N' depart='229.0' departLane='random' departSpeed='10' />
    <vehicle id='S_N_75' type='standard_car' route='S_N' depart='232.0' departLane='random' departSpeed='10' />
    <vehicle id='E_N_76' type='standard_car' route='E_N' depart='233.0' departLane='random' departSpeed='10' />
    <vehicle id='E_N_77' type='standard_car' route='E_N' depart='235.0' departLane='random' departSpeed='10' />
    <vehicle id='S_E_78' type='standard_car' route='S_E' depart='235.0' departLane='random' departSpeed='10' />
    <vehicle id='W_E_79' type='standard_car' route='W_E' depart='237.0' departLane='random' departSpeed='10' />
    <vehicle id='E_W_80' type='standard_car' route='E_W' depart='239.0' departLane='random' departSpeed='10' />
    <vehicle id='E_W_81' type='standard_car' route='E_W' depart='240.0' departLane='random' departSpeed='10' />
    <vehicle id='S_N_82' type='standard_car' route='S_N' depart='242.0' departLane='random' departSpeed='10' />
    <vehicle id='S_N_83' type='standard_car' route='S_N' depart='244.0' departLane='random' departSpeed='10' />
    <vehicle id='W_S_84' type='standard_car' route='W_S' depart='244.0' departLane='random' departSpeed='10' />
    <vehicle id='N_W_85' type='standard_car' route='N_W' depart='245.0' departLane='random' departSpeed='10' />
    <vehicle id='W_E_86' type='standard_car' route='W_E' depart='245.0' departLane='random' departSpeed='10' />
    <vehicle id='S_N_87' type='standard_car' route='S_N' depart='247.0' departLane='random' departSpeed='10' />
    <vehicle id='W_S_88' type='standard_car' route='W_S' depart='247.0' departLane='random' departSpeed='10' />
    <vehicle id='E_W_89' type='standard_car' route='E_W' depart='249.0' departLane='random' departSpeed='10' />
    <vehicle id='N_W_90' type='standard_car' route='N_W' depart='251.0' departLane='random' departSpeed='10' />
    <vehicle id='N_S_91' type='standard_car' route='N_S' depart='252.0' departLane='random' departSpeed='10' />
    <vehicle id='S_E_92' type='standard_car' route='S_E' depart='253.0' departLane='random' departSpeed='10' />
    <vehicle id='E_W_93' type='standard_car' route='E_W' depart='254.0' departLane='random' departSpeed='10' />
    <vehicle id='E_N_94' type='standard_car' route='E_N' depart='254.0' departLane='random' departSpeed='10' />
    <vehicle id='S_N_95' type='standard_car' route='S_N' depart='257.0' departLane='random' departSpeed='10' />
    <vehicle id='S_E_96' type='standard_car' route='S_E' depart='259.0' departLane='random' departSpeed='10' />
    <vehicle id='E_W_97' type='standard_car' route='E_W' depart='266.0' departLane='random' departSpeed='10' />
    <vehicle id='N_W_98' type='standard_car' route='N_W' depart='266.0' departLane='random' departSpeed='10' />
    <vehicle id='S_N_99' type='standard_car' route='S_N' depart='269.0' departLane='random' departSpeed='10' />
    <vehicle id='S_N_100' type='standard_car' route='S_N' depart='269.0' departLane='random' departSpeed='10' />
    <vehicle id='E_W_101' type='standard_car' route='E_W' depart='271.0' departLane='random' departSpeed='10' />
    <vehicle id='E_W_102' type='standard_car' route='E_W' depart='276.0' departLane='random' departSpeed='10' />
    <vehicle id='W_S_103' type='standard_car' route='W_S' depart='279.0' departLane='random' departSpeed='10' />
    <vehicle id='N_W_104' type='standard_car' route='N_W' depart='279.0' departLane='random' departSpeed='10' />
    <vehicle id='W_E_105' type='standard_car' route='W_E' depart='281.0' departLane='random' departSpeed='10' />
    <vehicle id='E_W_106' type='standard_car' route='E_W' depart='281.0' departLane='random' departSpeed='10' />
    <vehicle id='W_E_107' type='standard_car' route='W_E' depart='282.0' departLane='random' departSpeed='10' />
    <vehicle id='E_N_108' type='standard_car' route='E_N' depart='282.0' departLane='random' departSpeed='10' />
    <vehicle id='N_W_109' type='standard_car' route='N_W' depart='282.0' departLane='random' departSpeed='10' />
    <vehicle id='W_E_110' type='standard_car' route='W_E' depart='283.0' departLane='random' departSpeed='10' />
    <vehicle id='S_N_111' type='standard_car' route='S_N' depart='284.0' departLane='random' departSpeed='10' />
    <vehicle id='E_W_112' type='standard_car' route='E_W' depart='284.0' departLane='random' departSpeed='10' />
    <vehicle id='N_W_113' type='standard_car' route='N_W' depart='285.0' departLane='random' departSpeed='10' />
    <vehicle id='E_W_114' type='standard_car' route='E_W' depart='286.0' departLane='random' departSpeed='10' />
    <vehicle id='W_S_115' type='standard_car' route='W_S' depart='286.0' departLane='random' departSpeed='10' />
    <vehicle id='W_E_116' type='standard_car' route='W_E' depart='287.0' departLane='random' departSpeed='10' />
    <vehicle id='W_E_117' type='standard_car' route='W_E' depart='287.0' departLane='random' departSpeed='10' />
    <vehicle id='N_S_118' type='standard_car' route='N_S' depart='288.0' departLane='random' departSpeed='10' />
    <vehicle id='S_N_119' type='standard_car' route='S_N' depart='289.0' departLane='random' departSpeed='10' />
    <vehicle id='N_S_120' type='standard_car' route='N_S' depart='291.0' departLane='random' departSpeed='10' />
    <vehicle id='N_S_121' type='standard_car' route='N_S' depart='291.0' departLane='random' departSpeed='10' />
    <vehicle id='N_S_122' type='standard_car' route='N_S' depart='292.0' departLane='random' departSpeed='10' />
    <vehicle id='N_S_123' type='standard_car' route='N_S' depart='295.0' departLane='random' departSpeed='10' />
    <vehicle id='S_N_124' type='standard_car' route='S_N' depart='296.0' departLane='random' departSpeed='10' />
    <vehicle id='E_W_125' type='standard_car' route='E_W' depart='299.0' departLane='random' departSpeed='10' />
    <vehicle id='E_N_126' type='standard_car' route='E_N' depart='300.0' departLane='random' departSpeed='10' />
    <vehicle id='W_E_127' type='standard_car' route='W_E' depart='303.0' departLane='random' departSpeed='10' />
    <vehicle id='W_E_128' type='standard_car' route='W_E' depart='303.0' departLane='random' departSpeed='10' />
    <vehicle id='N_S_129' type='standard_car' route='N_S' depart='304.0' departLane='random' departSpeed='10' />
    <vehicle id='N_W_130' type='standard_car' route='N_W' depart='305.0' departLane='random' departSpeed='10' />
    <vehicle id='N_S_131' type='standard_car' route='N_S' depart='306.0' departLane='random' departSpeed='10' />
    <vehicle id='N_W_132' type='standard_car' route='N_W' depart='307.0' departLane='random' departSpeed='10' />
    <vehicle id='S_N_133' type='standard_car' route='S_N' depart='311.0' departLane='random' departSpeed='10' />
    <vehicle id='S_E_134' type='standard_car' route='S_E' depart='312.0' departLane='random' departSpeed='10' />
    <vehicle id='N_W_135' type='standard_car' route='N_W' depart='313.0' departLane='random' departSpeed='10' />
    <vehicle id='N_S_136' type='standard_car' route='N_S' depart='313.0' departLane='random' departSpeed='10' />
    <vehicle id='S_E_137' type='standard_car' route='S_E' depart='318.0' departLane='random' departSpeed='10' />
    <vehicle id='S_N_138' type='standard_car' route='S_N' depart='320.0' departLane='random' departSpeed='10' />
    <vehicle id='S_N_139' type='standard_car' route='S_N' depart='320.0' departLane='random' departSpeed='10' />
    <vehicle id='N_S_140' type='standard_car' route='N_S' depart='322.0' departLane='random' departSpeed='10' />
    <vehicle id='E_N_141' type='standard_car' route='E_N' depart='323.0' departLane='random' departSpeed='10' />
    <vehicle id='N_W_142' type='standard_car' route='N_W' depart='327.0' departLane='random' departSpeed='10' />
    <vehicle id='S_N_143' type='standard_car' route='S_N' depart='328.0' departLane='random' departSpeed='10' />
    <vehicle id='E_W_144' type='standard_car' route='E_W' depart='328.0' departLane='random' departSpeed='10' />
    <vehicle id='S_N_145' type='standard_car' route='S_N' depart='328.0' departLane='random' departSpeed='10' />
    <vehicle id='W_E_146' type='standard_car' route='W_E' depart='329.0' departLane='random' departSpeed='10' />
    <vehicle id='E_W_147' type='standard_car' route='E_W' depart='331.0' departLane='random' departSpeed='10' />
    <vehicle id='W_S_148' type='standard_car' route='W_S' depart='333.0' departLane='random' departSpeed='10' />
    <vehicle id='E_W_149' type='standard_car' route='E_W' depart='336.0' departLane='random' departSpeed='10' />
    <vehicle id='S_N_150' type='standard_car' route='S_N' depart='337.0' departLane='random' departSpeed='10' />
    <vehicle id='N_W_151' type='standard_car' route='N_W' depart='341.0' departLane='random' departSpeed='10' />
    <vehicle id='N_W_152' type='standard_car' route='N_W' depart='341.0' departLane='random' departSpeed='10' />
    <vehicle id='W_S_153' type='standard_car' route='W_S' depart='345.0' departLane='random' departSpeed='10' />
    <vehicle id='S_E_154' type='standard_car' route='S_E' depart='346.0' departLane='random' departSpeed='10' />
    <vehicle id='E_W_155' type='standard_car' route='E_W' depart='347.0' departLane='random' departSpeed='10' />
    <vehicle id='N_S_156' type='standard_car' route='N_S' depart='351.0' departLane='random' departSpeed='10' />
    <vehicle id='E_N_157' type='standard_car' route='E_N' depart='352.0' departLane='random' departSpeed='10' />
    <vehicle id='E_N_158' type='standard_car' route='E_N' depart='353.0' departLane='random' departSpeed='10' />
    <vehicle id='N_S_159' type='standard_car' route='N_S' depart='353.0' departLane='random' departSpeed='10' />
    <vehicle id='W_E_160' type='standard_car' route='W_E' depart='353.0' departLane='random' departSpeed='10' />
    <vehicle id='N_S_161' type='standard_car' route='N_S' depart='354.0' departLane='random' departSpeed='10' />
    <vehicle id='N_W_162' type='standard_car' route='N_W' depart='355.0' departLane='random' departSpeed='10' />
    <vehicle id='N_W_163' type='standard_car' route='N_W' depart='357.0' departLane='random' departSpeed='10' />
    <vehicle id='W_E_164' type='standard_car' route='W_E' depart='357.0' departLane='random' departSpeed='10' />
    <vehicle id='N_W_165' type='standard_car' route='N_W' depart='358.0' departLane='random' departSpeed='10' />
    <vehicle id='E_W_166' type='standard_car' route='E_W' depart='363.0' departLane='random' departSpeed='10' />
    <vehicle id='W_E_167' type='standard_car' route='W_E' depart='364.0' departLane='random' departSpeed='10' />
    <vehicle id='N_W_168' type='standard_car' route='N_W' depart='365.0' departLane='random' departSpeed='10' />
    <vehicle id='E_W_169' type='standard_car' route='E_W' depart='366.0' departLane='random' departSpeed='10' />
    <vehicle id='S_N_170' type='standard_car' route='S_N' depart='367.0' departLane='random' departSpeed='10' />
    <vehicle id='N_W_171' type='standard_car' route='N_W' depart='369.0' departLane='random' departSpeed='10' />
    <vehicle id='W_S_172' type='standard_car' route='W_S' depart='370.0' departLane='random' departSpeed='10' />
    <vehicle id='E_W_173' type='standard_car' route='E_W' depart='371.0' departLane='random' departSpeed='10' />
    <vehicle id='W_S_174' type='standard_car' route='W_S' depart='371.0' departLane='random' departSpeed='10' />
    <vehicle id='N_W_175' type='standard_car' route='N_W' depart='372.0' departLane='random' departSpeed='10' />
    <vehicle id='S_N_176' type='standard_car' route='S_N' depart='372.0' departLane='random' departSpeed='10' />
    <vehicle id='S_E_177' type='standard_car' route='S_E' depart='373.0' departLane='random' departSpeed='10' />
    <vehicle id='S_N_178' type='standard_car' route='S_N' depart='373.0' departLane='random' departSpeed='10' />
    <vehicle id='W_S_179' type='standard_car' route='W_S' depart='374.0' departLane='random' departSpeed='10' />
    <vehicle id='W_E_180' type='standard_car' route='W_E' depart='375.0' departLane='random' departSpeed='10' />
    <vehicle id='E_W_181' type='standard_car' route='E_W' depart='376.0' departLane='random' departSpeed='10' />
    <vehicle id='N_W_182' type='standard_car' route='N_W' depart='376.0' departLane='random' departSpeed='10' />
    <vehicle id='S_N_183' type='standard_car' route='S_N' depart='376.0' departLane='random' departSpeed='10' />
    <vehicle id='W_S_184' type='standard_car' route='W_S' depart='377.0' departLane='random' departSpeed='10' />
    <vehicle id='E_W_185' type='standard_car' route='E_W' depart='378.0' departLane='random' departSpeed='10' />
    <vehicle id='E_W_186' type='standard_car' route='E_W' depart='379.0' departLane='random' departSpeed='10' />
    <vehicle id='N_S_187' type='standard_car' route='N_S' depart='379.0' departLane='random' departSpeed='10' />
    <vehicle id='E_W_188' type='standard_car' route='E_W' depart='381.0' departLane='random' departSpeed='10' />
    <vehicle id='S_E_189' type='standard_car' route='S_E' depart='382.0' departLane='random' departSpeed='10' />
    <vehicle id='W_E_190' type='standard_car' route='W_E' depart='384.0' departLane='random' departSpeed='10' />
    <vehicle id='S_N_191' type='standard_car' route='S_N' depart='385.0' departLane='random' departSpeed='10' />
    <vehicle id='W_E_192' type='standard_car' route='W_E' depart='385.0' departLane='random' departSpeed='10' />
    <vehicle id='N_S_193' type='standard_car' route='N_S' depart='386.0' departLane='random' departSpeed='10' />
    <vehicle id='E_N_194' type='standard_car' route='E_N' depart='386.0' departLane='random' departSpeed='10' />
    <vehicle id='E_N_195' type='standard_car' route='E_N' depart='386.0' departLane='random' departSpeed='10' />
    <vehicle id='S_N_196' type='standard_car' route='S_N' depart='387.0' departLane='random' departSpeed='10' />
    <vehicle id='S_N_197' type='standard_car' route='S_N' depart='390.0' departLane='random' departSpeed='10' />
    <vehicle id='S_N_198' type='standard_car' route='S_N' depart='393.0' departLane='random' departSpeed='10' />
    <vehicle id='N_S_199' type='standard_car' route='N_S' depart='393.0' departLane='random' departSpeed='10' />
    <vehicle id='W_S_200' type='standard_car' route='W_S' depart='394.0' departLane='random' departSpeed='10' />
    <vehicle id='W_S_201' type='standard_car' route='W_S' depart='394.0' departLane='random' departSpeed='10' />
    <vehicle id='S_E_202' type='standard_car' route='S_E' depart='395.0' departLane='random' departSpeed='10' />
    <vehicle id='S_N_203' type='standard_car' route='S_N' depart='397.0' departLane='random' departSpeed='10' />
    <vehicle id='N_S_204' type='standard_car' route='N_S' depart='397.0' departLane='random' departSpeed='10' />
    <vehicle id='N_W_205' type='standard_car' route='N_W' depart='399.0' departLane='random' departSpeed='10' />
    <vehicle id='N_S_206' type='standard_car' route='N_S' depart='399.0' departLane='random' departSpeed='10' />
    <vehicle id='S_N_207' type='standard_car' route='S_N' depart='400.0' departLane='random' departSpeed='10' />
    <vehicle id='E_N_208' type='standard_car' route='E_N' depart='402.0' departLane='random' departSpeed='10' />
    <vehicle id='W_S_209' type='standard_car' route='W_S' depart='402.0' departLane='random' departSpeed='10' />
    <vehicle id='N_W_210' type='standard_car' route='N_W' depart='403.0' departLane='random' departSpeed='10' />
    <vehicle id='E_N_211' type='standard_car' route='E_N' depart='405.0' departLane='random' departSpeed='10' />
    <vehicle id='N_S_212' type='standard_car' route='N_S' depart='406.0' departLane='random' departSpeed='10' />
    <vehicle id='E_W_213' type='standard_car' route='E_W' depart='408.0' departLane='random' departSpeed='10' />
    <vehicle id='N_W_214' type='standard_car' route='N_W' depart='409.0' departLane='random' departSpeed='10' />
    <vehicle id='E_N_215' type='standard_car' route='E_N' depart='410.0' departLane='random' departSpeed='10' />
    <vehicle id='N_S_216' type='standard_car' route='N_S' depart='411.0' departLane='random' departSpeed='10' />
    <vehicle id='S_N_217' type='standard_car' route='S_N' depart='411.0' departLane='random' departSpeed='10' />
    <vehicle id='S_N_218' type='standard_car' route='S_N' depart='412.0' departLane='random' departSpeed='10' />
    <vehicle id='S_N_219' type='standard_car' route='S_N' depart='412.0' departLane='random' departSpeed='10' />
    <vehicle id='N_W_220' type='standard_car' route='N_W' depart='412.0' departLane='random' departSpeed='10' />
    <vehicle id='E_N_221' type='standard_car' route='E_N' depart='413.0' departLane='random' departSpeed='10' />
    <vehicle id='S_E_222' type='standard_car' route='S_E' depart='414.0' departLane='random' departSpeed='10' />
    <vehicle id='E_N_223' type='standard_car' route='E_N' depart='415.0' departLane='random' departSpeed='10' />
    <vehicle id='E_W_224' type='standard_car' route='E_W' depart='416.0' departLane='random' departSpeed='10' />
    <vehicle id='N_S_225' type='standard_car' route='N_S' depart='417.0' departLane='random' departSpeed='10' />
    <vehicle id='S_E_226' type='standard_car' route='S_E' depart='417.0' departLane='random' departSpeed='10' />
    <vehicle id='E_N_227' type='standard_car' route='E_N' depart='420.0' departLane='random' departSpeed='10' />
    <vehicle id='E_N_228' type='standard_car' route='E_N' depart='421.0' departLane='random' departSpeed='10' />
    <vehicle id='E_N_229' type='standard_car' route='E_N' depart='422.0' departLane='random' departSpeed='10' />
    <vehicle id='S_N_230' type='standard_car' route='S_N' depart='424.0' departLane='random' departSpeed='10' />
    <vehicle id='N_W_231' type='standard_car' route='N_W' depart='425.0' departLane='random' departSpeed='10' />
    <vehicle id='N_S_232' type='standard_car' route='N_S' depart='426.0' departLane='random' departSpeed='10' />
    <vehicle id='E_N_233' type='standard_car' route='E_N' depart='428.0' departLane='random' departSpeed='10' />
    <vehicle id='N_S_234' type='standard_car' route='N_S' depart='429.0' departLane='random' departSpeed='10' />
    <vehicle id='W_E_235' type='standard_car' route='W_E' depart='430.0' departLane='random' departSpeed='10' />
    <vehicle id='E_N_236' type='standard_car' route='E_N' depart='431.0' departLane='random' departSpeed='10' />
    <vehicle id='W_S_237' type='standard_car' route='W_S' depart='431.0' departLane='random' departSpeed='10' />
    <vehicle id='E_N_238' type='standard_car' route='E_N' depart='432.0' departLane='random' departSpeed='10' />
    <vehicle id='S_E_239' type='standard_car' route='S_E' depart='432.0' departLane='random' departSpeed='10' />
    <vehicle id='N_S_240' type='standard_car' route='N_S' depart='432.0' departLane='random' departSpeed='10' />
    <vehicle id='N_S_241' type='standard_car' route='N_S' depart='432.0' departLane='random' departSpeed='10' />
    <vehicle id='N_W_242' type='standard_car' route='N_W' depart='432.0' departLane='random' departSpeed='10' />
    <vehicle id='N_S_243' type='standard_car' route='N_S' depart='434.0' departLane='random' departSpeed='10' />
    <vehicle id='W_S_244' type='standard_car' route='W_S' depart='435.0' departLane='random' departSpeed='10' />
    <vehicle id='S_N_245' type='standard_car' route='S_N' depart='436.0' departLane='random' departSpeed='10' />
    <vehicle id='S_N_246' type='standard_car' route='S_N' depart='436.0' departLane='random' departSpeed='10' />
    <vehicle id='S_N_247' type='standard_car' route='S_N' depart='437.0' departLane='random' departSpeed='10' />
    <vehicle id='W_E_248' type='standard_car' route='W_E' depart='439.0' departLane='random' departSpeed='10' />
    <vehicle id='W_S_249' type='standard_car' route='W_S' depart='439.0' departLane='random' departSpeed='10' />
    <vehicle id='W_S_250' type='standard_car' route='W_S' depart='440.0' departLane='random' departSpeed='10' />
    <vehicle id='W_E_251' type='standard_car' route='W_E' depart='441.0' departLane='random' departSpeed='10' />
    <vehicle id='W_E_252' type='standard_car' route='W_E' depart='449.0' departLane='random' departSpeed='10' />
    <vehicle id='S_N_253' type='standard_car' route='S_N' depart='450.0' departLane='random' departSpeed='10' />
    <vehicle id='S_N_254' type='standard_car' route='S_N' depart='450.0' departLane='random' departSpeed='10' />
    <vehicle id='W_E_255' type='standard_car' route='W_E' depart='450.0' departLane='random' departSpeed='10' />
    <vehicle id='S_E_256' type='standard_car' route='S_E' depart='452.0' departLane='random' departSpeed='10' />
    <vehicle id='W_S_257' type='standard_car' route='W_S' depart='452.0' departLane='random' departSpeed='10' />
    <vehicle id='E_N_258' type='standard_car' route='E_N' depart='453.0' departLane='random' departSpeed='10' />