<routes>
    <vType id="standard_car" length="5.0" maxSpeed="15" minGap="2.5" accel="2.0" decel="4.5" />
    <route id="N_S" edges="road_1_2_3 road_1_1_3"/>
    <route id="N_E" edges="road_1_2_3 road_1_1_0"/>
    <route id="N_W" edges="road_1_2_3 road_1_1_2"/>
    <route id="S_W" edges="road_1_0_1 road_1_1_2"/>
    <route id="S_E" edges="road_1_0_1 road_1_1_0"/>
    <route id="S_N" edges="road_1_0_1 road_1_1_1"/>

    <route id="W_E" edges="road_0_1_0 road_1_1_0"/>
    <route id="W_N" edges="road_0_1_0 road_1_1_1"/>
    <route id="W_S" edges="road_0_1_0 road_1_1_3"/>
    <route id="E_N" edges="road_2_1_2 road_1_1_1"/>
    <route id="E_S" edges="road_2_1_2 road_1_1_3"/>
    <route id="E_W" edges="road_2_1_2 road_1_1_2"/>
            
    <vehicle id='N_S_0' type='standard_car' route='N_S' depart='20.0' departLane='random' departSpeed='10' />
    <vehicle id='E_W_1' type='standard_car' route='E_W' depart='25.0' departLane='random' departSpeed='10' />
    <vehicle id='S_E_2' type='standard_car' route='S_E' depart='29.0' departLane='random' departSpeed='10' />
    <vehicle id='S_N_3' type='standard_car' route='S_N' depart='64.0' departLane='random' departSpeed='10' />
    <vehicle id='S_N_4' type='standard_car' route='S_N' depart='75.0' departLane='random' departSpeed='10' />
    <vehicle id='E_W_5' type='standard_car' route='E_W' depart='79.0' departLane='random' departSpeed='10' />
    <vehicle id='S_E_6' type='standard_car' route='S_E' depart='86.0' departLane='random' departSpeed='10' />
    <vehicle id='E_W_7' type='standard_car' route='E_W' depart='96.0' departLane='random' departSpeed='10' />
    <vehicle id='E_N_8' type='standard_car' route='E_N' depart='106.0' departLane='random' departSpeed='10' />
    <vehicle id='E_W_9' type='standard_car' route='E_W' depart='107.0' departLane='random' departSpeed='10' />
    <vehicle id='N_S_10' type='standard_car' route='N_S' depart='110.0' departLane='random' departSpeed='10' />
    <vehicle id='N_W_11' type='standard_car' route='N_W' depart='114.0' departLane='random' departSpeed='10' />
    <vehicle id='E_W_12' type='standard_car' route='E_W' depart='114.0' departLane='random' departSpeed='10' />
    <vehicle id='W_S_13' type='standard_car' route='W_S' depart='122.0' departLane='random' departSpeed='10' />
    <vehicle id='E_N_14' type='standard_car' route='E_N' depart='123.0' departLane='random' departSpeed='10' />
    <vehicle id='S_N_15' type='standard_car' route='S_N' depart='125.0' departLane='random' departSpeed='10' />
    <vehicle id='E_W_16' type='standard_car' route='E_W' depart='126.0' departLane='random' departSpeed='10' />
    <vehicle id='E_W_17' type='standard_car' route='E_W' depart='131.0' departLane='random' departSpeed='10' />
    <vehicle id='N_W_18' type='standard_car' route='N_W' depart='132.0' departLane='random' departSpeed='10' />
    <vehicle id='S_N_19' type='standard_car' route='S_N' depart='134.0' departLane='random' departSpeed='10' />
    <vehicle id='S_E_20' type='standard_car' route='S_E' depart='143.0' departLane='random' departSpeed='10' />
    <vehicle id='N_S_21' type='standard_car' route='N_S' depart='145.0' departLane='random' departSpeed='10' />
    <vehicle id='N_S_22' type='standard_car' route='N_S' depart='150.0' departLane='random' departSpeed='10' />
    <vehicle id='W_S_23' type='standard_car' route='W_S' depart='157.0' departLane='random' departSpeed='10' />
    <vehicle id='W_E_24' type='standard_car' route='W_E' depart='158.0' departLane='random' departSpeed='10' />
    <vehicle id='E_W_25' type='standard_car' route='E_W' depart='158.0' departLane='random' departSpeed='10' />
    <vehicle id='N_W_26' type='standard_car' route='N_W' depart='160.0' departLane='random' departSpeed='10' />
    <vehicle id='W_E_27' type='standard_car' route='W_E' depart='162.0' departLane='random' departSpeed='10' />
    <vehicle id='E_W_28' type='standard_car' route='E_W' depart='169.0' departLane='random' departSpeed='10' />
    <vehicle id='W_E_29' type='standard_car' route='W_E' depart='171.0' departLane='random' departSpeed='10' />
    <vehicle id='W_E_30' type='standard_car' route='W_E' depart='172.0' departLane='random' departSpeed='10' />
    <vehicle id='S_E_31' type='standard_car' route='S_E' depart='173.0' departLane='random' departSpeed='10' />
    <vehicle id='N_S_32' type='standard_car' route='N_S' depart='173.0' departLane='random' departSpeed='10' />
    <vehicle id='S_N_33' type='standard_car' route='S_N' depart='176.0' departLane='random' departSpeed='10' />
    <vehicle id='N_W_34' type='standard_car' route='N_W' depart='178.0' departLane='random' departSpeed='10' />
    <vehicle id='S_E_35' type='standard_car' route='S_E' depart='179.0' departLane='random' departSpeed='10' />
    <vehicle id='N_S_36' type='standard_car' route='N_S' depart='183.0' departLane='random' departSpeed='10' />
    <vehicle id='S_E_37' type='standard_car' route='S_E' depart='184.0' departLane='random' departSpeed='10' />
    <vehicle id='E_W_38' type='standard_car' route='E_W' depart='189.0' departLane='random' departSpeed='10' />
    <vehicle id='S_N_39' type='standard_car' route='S_N' depart='192.0' departLane='random' departSpeed='10' />
    <vehicle id='S_E_40' type='standard_car' route='S_E' depart='193.0' departLane='random' departSpeed='10' />
    <vehicle id='N_S_41' type='standard_car' route='N_S' depart='193.0' departLane='random' departSpeed='10' />
    <vehicle id='W_E_42' type='standard_car' route='W_E' depart='194.0' departLane='random' departSpeed='10' />
    <vehicle id='N_S_43' type='standard_car' route='N_S' depart='195.0' departLane='random' departSpeed='10' />
    <vehicle id='W_S_44' type='standard_car' route='W_S' depart='196.0' departLane='random' departSpeed='10' />
    <vehicle id='N_W_45' type='standard_car' route='N_W' depart='196.0' departLane='random' departSpeed='10' />
    <vehicle id='S_E_46' type='standard_car' route='S_E' depart='200.0' departLane='random' departSpeed='10' />
    <vehicle id='N_W_47' type='standard_car' route='N_W' depart='207.0' departLane='random' departSpeed='10' />
    <vehicle id='W_E_48' type='standard_car' route='W_E' depart='211.0' departLane='random' departSpeed='10' />
    <vehicle id='W_E_49' type='standard_car' route='W_E' depart='211.0' departLane='random' departSpeed='10' />
    <vehicle id='S_N_50' type='standard_car' route='S_N' depart='212.0' departLane='random' departSpeed='10' />
    <vehicle id='W_S_51' type='standard_car' route='W_S' depart='214.0' departLane='random' departSpeed='10' />
    <vehicle id='N_W_52' type='standard_car' route='N_W' depart='219.0' departLane='random' departSpeed='10' />
    <vehicle id='S_N_53' type='standard_car' route='S_N' depart='219.0' departLane='random' departSpeed='10' />
    <vehicle id='E_N_54' type='standard_car' route='E_N' depart='226.0' departLane='random' departSpeed='10' />
    <vehicle id='W_E_55' type='standard_car' route='W_E' depart='228.0' departLane='random' departSpeed='10' />
    <vehicle id='S_E_56' type='standard_car' route='S_E' depart='229.0' departLane='random' departSpeed='10' />
    <vehicle id='S_N_57' type='standard_car' route='S_N' depart='230.0' departLane='random' departSpeed='10' />
    <vehicle id='N_W_58' type='standard_car' route='N_W' depart='233.0' departLane='random' departSpeed='10' />
    <vehicle id='S_N_59' type='standard_car' route='S_N' depart='237.0' departLane='random' departSpeed='10' />
    <vehicle id='N_W_60' type='standard_car' route='N_W' depart='240.0' departLane='random' departSpeed='10' />
    <vehicle id='N_W_61' type='standard_car' route='N_W' depart='241.0' departLane='random' departSpeed='10' />
    <vehicle id='S_N_62' type='standard_car' route='S_N' depart='242.0' departLane='random' departSpeed='10' />
    <vehicle id='S_E_63' type='standard_car' route='S_E' depart='244.0' departLane='random' departSpeed='10' />
    <vehicle id='E_N_64' type='standard_car' route='E_N' depart='244.0' departLane='random' departSpeed='10' />
    <vehicle id='S_E_65' type='standard_car' route='S_E' depart='244.0' departLane='random' departSpeed='10' />
    <vehicle id='N_S_66' type='standard_car' route='N_S' depart='245.0' departLane='random' departSpeed='10' />
    <vehicle id='S_E_67' type='standard_car' route='S_E' depart='245.0' departLane='random' departSpeed='10' />
    <vehicle id='S_N_68' type='standard_car' route='S_N' depart='247.0' departLane='random' departSpeed='10' />
    <vehicle id='S_N_69' type='standard_car' route='S_N' depart='247.0' departLane='random' departSpeed='10' />
    <vehicle id='E_N_70' type='standard_car' route='E_N' depart='248.0' departLane='random' departSpeed='10' />
    <vehicle id='N_S_71' type='standard_car' route='N_S' depart='249.0' departLane='random' departSpeed='10' />
    <vehicle id='E_N_72' type='standard_car' route='E_N' depart='250.0' departLane='random' departSpeed='10' />
    <vehicle id='S_N_73' type='standard_car' route='S_N' depart='250.0' departLane='random' departSpeed='10' />
    <vehicle id='N_S_74' type='standard_car' route='N_S' depart='252.0' departLane='random' departSpeed='10' />
    <vehicle id='N_S_75' type='standard_car' route='N_S' depart='253.0' departLane='random' departSpeed='10' />
    <vehicle id='W_S_76' type='standard_car' route='W_S' depart='253.0' departLane='random' departSpeed='10' />
    <vehicle id='W_E_77' type='standard_car' route='W_E' depart='254.0' departLane='random' departSpeed='10' />
    <vehicle id='W_S_78' type='standard_car' route='W_S' depart='254.0' departLane='random' departSpeed='10' />
    <vehicle id='N_W_79' type='standard_car' route='N_W' depart='255.0' departLane='random' departSpeed='10' />
    <vehicle id='N_W_80' type='standard_car' route='N_W' depart='258.0' departLane='random' departSpeed='10' />
    <vehicle id='S_N_81' type='standard_car' route='S_N' depart='259.0' departLane='random' departSpeed='10' />
    <vehicle id='S_N_82' type='standard_car' route='S_N' depart='261.0' departLane='random' departSpeed='10' />
    <vehicle id='N_W_83' type='standard_car' route='N_W' depart='263.0' departLane='random' departSpeed='10' />
    <vehicle id='N_S_84' type='standard_car' route='N_S' depart='264.0' departLane='random' departSpeed='10' />
    <vehicle id='E_W_85' type='standard_car' route='E_W' depart='265.0' departLane='random' departSpeed='10' />
    <vehicle id='S_N_86' type='standard_car' route='S_N' depart='267.0' departLane='random' departSpeed='10' />
    <vehicle id='W_S_87' type='standard_car' route='W_S' depart='269.0' departLane='random' departSpeed='10' />
    <vehicle id='S_N_88' type='standard_car' route='S_N' depart='269.0' departLane='random' departSpeed='10' />
    <vehicle id='S_E_89' type='standard_car' route='S_E' depart='270.0' departLane='random' departSpeed='10' />
    <vehicle id='S_N_90' type='standard_car' route='S_N' depart='272.0' departLane='random' departSpeed='10' />
    <vehicle id='S_N_91' type='standard_car' route='S_N' depart='274.0' departLane='random' departSpeed='10' />
    <vehicle id='E_W_92' type='standard_car' route='E_W' depart='275.0' departLane='random' departSpeed='10' />
    <vehicle id='N_S_93' type='standard_car' route='N_S' depart='277.0' departLane='random' departSpeed='10' />
    <vehicle id='N_W_94' type='standard_car' route='N_W' depart='278.0' departLane='random' departSpeed='10' />
    <vehicle id='N_S_95' type='standard_car' route='N_S' depart='278.0' departLane='random' departSpeed='10' />
    <vehicle id='W_S_96' type='standard_car' route='W_S' depart='279.0' departLane='random' departSpeed='10' />
    <vehicle id='E_W_97' type='standard_car' route='E_W' depart='280.0' departLane='random' departSpeed='10' />
    <vehicle id='W_S_98' type='standard_car' route='W_S' depart='280.0' departLane='random' departSpeed='10' />
    <vehicle id='S_E_99' type='standard_car' route='S_E' depart='285.0' departLane='random' departSpeed='10' />
    <vehicle id='E_W_100' type='standard_car' route='E_W' depart='285.0' departLane='random' departSpeed='10' />
    <vehicle id='W_E_101' type='standard_car' route='W_E' depart='286.0' departLane='random' departSpeed='10' />
    <vehicle id='W_E_102' type='standard_car' route='W_E' depart='287.0' departLane='random' departSpeed='10' />
    <vehicle id='S_E_103' type='standard_car' route='S_E' depart='288.0' departLane='random' departSpeed='10' />
    <vehicle id='S_N_104' type='standard_car' route='S_N' depart='288.0' departLane='random' departSpeed='10' />
    <vehicle id='W_S_105' type='standard_car' route='W_S' depart='289.0' departLane='random' departSpeed='10' />
    <vehicle id='W_S_106' type='standard_car' route='W_S' depart='290.0' departLane='random' departSpeed='10' />
    <vehicle id='N_W_107' type='standard_car' route='N_W' depart='291.0' departLane='random' departSpeed='10' />
    <vehicle id='W_E_108' type='standard_car' route='W_E' depart='292.0' departLane='random' departSpeed='10' />
    <vehicle id='E_W_109' type='standard_car' route='E_W' depart='292.0' departLane='random' departSpeed='10' />
    <vehicle id='E_N_110' type='standard_car' route='E_N' depart='294.0' departLane='random' departSpeed='10' />
    <vehicle id='W_S_111' type='standard_car' route='W_S' depart='295.0' departLane='random' departSpeed='10' />
    <vehicle id='E_W_112' type='standard_car' route='E_W' depart='295.0' departLane='random' departSpeed='10' />
    <vehicle id='E_N_113' type='standard_car' route='E_N' depart='301.0' departLane='random' departSpeed='10' />
    <vehicle id='W_E_114' type='standard_car' route='W_E' depart='301.0' departLane='random' departSpeed='10' />
    <vehicle id='E_W_115' type='standard_car' route='E_W' depart='302.0' departLane='random' departSpeed='10' />
    <vehicle id='W_S_116' type='standard_car' route='W_S' depart='302.0' departLane='random' departSpeed='10' />
    <vehicle id='S_E_117' type='standard_car' route='S_E' depart='303.0' departLane='random' departSpeed='10' />
    <vehicle id='N_W_118' type='standard_car' route='N_W' depart='304.0' departLane='random' departSpeed='10' />
    <vehicle id='S_N_119' type='standard_car' route='S_N' depart='306.0' departLane='random' departSpeed='10' />
    <vehicle id='E_W_120' type='standard_car' route='E_W' depart='311.0' departLane='random' departSpeed='10' />
    <vehicle id='S_N_121' type='standard_car' route='S_N' depart='311.0' departLane='random' departSpeed='10' />
    <vehicle id='W_S_122' type='standard_car' route='W_S' depart='311.0' departLane='random' departSpeed='10' />
    <vehicle id='E_N_123' type='standard_car' route='E_N' depart='312.0' departLane='random' departSpeed='10' />
    <vehicle id='N_S_124' type='standard_car' route='N_S' depart='313.0' departLane='random' departSpeed='10' />
    <vehicle id='N_S_125' type='standard_car' route='N_S' depart='314.0' departLane='random' departSpeed='10' />
    <vehicle id='S_E_126' type='standard_car' route='S_E' depart='316.0' departLane='random' departSpeed='10' />
    <vehicle id='S_E_127' type='standard_car' route='S_E' depart='317.0' departLane='random' departSpeed='10' />
    <vehicle id='E_W_128' type='standard_car' route='E_W' depart='318.0' departLane='random' departSpeed='10' />
    <vehicle id='S_E_129' type='standard_car' route='S_E' depart='318.0' departLane='random' departSpeed='10' />
    <vehicle id='S_E_130' type='standard_car' route='S_E' depart='318.0' departLane='random' departSpeed='10' />
    <vehicle id='N_S_131' type='standard_car' route='N_S' depart='319.0' departLane='random' departSpeed='10' />
    <vehicle id='E_N_132' type='standard_car' route='E_N' depart='320.0' departLane='random' departSpeed='10' />
    <vehicle id='S_N_133' type='standard_car' route='S_N' depart='323.0' departLane='random' departSpeed='10' />
    <vehicle id='E_N_134' type='standard_car' route='E_N' depart='324.0' departLane='random' departSpeed='10' />
    <vehicle id='S_N_135' type='standard_car' route='S_N' depart='324.0' departLane='random' departSpeed='10' />
    <vehicle id='W_E_136' type='standard_car' route='W_E' depart='324.0' departLane='random' departSpeed='10' />
    <vehicle id='S_E_137' type='standard_car' route='S_E' depart='324.0' departLane='random' departSpeed='10' />
    <vehicle id='S_N_138' type='standard_car' route='S_N' depart='326.0' departLane='random' departSpeed='10' />
    <vehicle id='E_W_139' type='standard_car' route='E_W' depart='327.0' departLane='random' departSpeed='10' />
    <vehicle id='N_W_140' type='standard_car' route='N_W' depart='327.0' departLane='random' departSpeed='10' />
    <vehicle id='E_N_141' type='standard_car' route='E_N' depart='327.0' departLane='random' departSpeed='10' />
    <vehicle id='N_S_142' type='standard_car' route='N_S' depart='328.0' departLane='random' departSpeed='10' />
    <vehicle id='W_E_143' type='standard_car' route='W_E' depart='328.0' departLane='random' departSpeed='10' />
    <vehicle id='W_E_144' type='standard_car' route='W_E' depart='328.0' departLane='random' departSpeed='10' />
    <vehicle id='N_S_145' type='standard_car' route='N_S' depart='331.0' departLane='random' departSpeed='10' />
    <vehicle id='W_S_146' type='standard_car' route='W_S' depart='333.0' departLane='random' departSpeed='10' />
    <vehicle id='N_W_147' type='standard_car' route='N_W' depart='333.0' departLane='random' departSpeed='10' />
    <vehicle id='E_W_148' type='standard_car' route='E_W' depart='333.0' departLane='random' departSpeed='10' />
    <vehicle id='E_N_149' type='standard_car' route='E_N' depart='335.0' departLane='random' departSpeed='10' />
    <vehicle id='W_E_150' type='standard_car' route='W_E' depart='336.0' departLane='random' departSpeed='10' />
    <vehicle id='S_E_151' type='standard_car' route='S_E' depart='338.0' departLane='random' departSpeed='10' />
    <vehicle id='E_N_152' type='standard_car' route='E_N' depart='341.0' departLane='random' departSpeed='10' />
    <vehicle id='E_W_153' type='standard_car' route='E_W' depart='341.0' departLane='random' departSpeed='10' />
    <vehicle id='N_W_154' type='standard_car' route='N_W' depart='342.0' departLane='random' departSpeed='10' />
    <vehicle id='S_E_155' type='standard_car' route='S_E' depart='344.0' departLane='random' departSpeed='10' />
    <vehicle id='W_S_156' type='standard_car' route='W_S' depart='344.0' departLane='random' departSpeed='10' />
    <vehicle id='N_S_157' type='standard_car' route='N_S' depart='346.0' departLane='random' departSpeed='10' />
    <vehicle id='N_S_158' type='standard_car' route='N_S' depart='347.0' departLane='random' departSpeed='10' />
    <vehicle id='E_W_159' type='standard_car' route='E_W' depart='348.0' departLane='random' departSpeed='10' />
    <vehicle id='S_N_160' type='standard_car' route='S_N' depart='349.0' departLane='random' departSpeed='10' />
    <vehicle id='E_W_161' type='standard_car' route='E_W' depart='350.0' departLane='random' departSpeed='10' />
    <vehicle id='W_E_162' type='standard_car' route='W_E' depart='350.0' departLane='random' departSpeed='10' />
    <vehicle id='N_W_163' type='standard_car' route='N_W' depart='352.0' departLane='random' departSpeed='10' />
    <vehicle id='S_N_164' type='standard_car' route='S_N' depart='353.0' departLane='random' departSpeed='10' />
    <vehicle id='N_W_165' type='standard_car' route='N_W' depart='354.0' departLane='random' departSpeed='10' />
    <vehicle id='N_W_166' type='standard_car' route='N_W' depart='354.0' departLane='random' departSpeed='10' />
    <vehicle id='N_W_167' type='standard_car' route='N_W' depart='354.0' departLane='random' departSpeed='10' />
    <vehicle id='E_W_168' type='standard_car' route='E_W' depart='355.0' departLane='random' departSpeed='10' />
    <vehicle id='S_N_169' type='standard_car' route='S_N' depart='357.0' departLane='random' departSpeed='10' />
    <vehicle id='N_S_170' type='standard_car' route='N_S' depart='360.0' departLane='random' departSpeed='10' />
    <vehicle id='S_N_171' type='standard_car' route='S_N' depart='362.0' departLane='random' departSpeed='10' />
    <vehicle id='W_E_172' type='standard_car' route='W_E' depart='363.0' departLane='random' departSpeed='10' />
    <vehicle id='E_W_173' type='standard_car' route='E_W' depart='364.0' departLane='random' departSpeed='10' />
    <vehicle id='W_S_174' type='standard_car' route='W_S' depart='364.0' departLane='random' departSpeed='10' />
    <vehicle id='N_S_175' type='standard_car' route='N_S' depart='365.0' departLane='random' departSpeed='10' />
    <vehicle id='N_W_176' type='standard_car' route='N_W' depart='366.0' departLane='random' departSpeed='10' />
    <vehicle id='E_W_177' type='standard_car' route='E_W' depart='367.0' departLane='random' departSpeed='10' />
    <vehicle id='N_S_178' type='standard_car' route='N_S' depart='367.0' departLane='random' departSpeed='10' />
    <vehicle id='S_E_179' type='standard_car' route='S_E' depart='367.0' departLane='random' departSpeed='10' />
    <vehicle id='N_W_180' type='standard_car' route='N_W' depart='368.0' departLane='random' departSpeed='10' />
    <vehicle id='W_E_181' type='standard_car' route='W_E' depart='368.0' departLane='random' departSpeed='10' />
    <vehicle id='W_E_182' type='standard_car' route='W_E' depart='368.0' departLane='random' departSpeed='10' />
    <vehicle id='N_S_183' type='standard_car' route='N_S' depart='369.0' departLane='random' departSpeed='10' />
    <vehicle id='N_S_184' type='standard_car' route='N_S' depart='369.0' departLane='random' departSpeed='10' />
    <vehicle id='E_W_185' type='standard_car' route='E_W' depart='370.0' departLane='random' departSpeed='10' />
    <vehicle id='N_S_186' type='standard_car' route='N_S' depart='370.0' departLane='random' departSpeed='10' />
    <vehicle id='E_N_187' type='standard_car' route='E_N' depart='371.0' departLane='random' departSpeed='10' />
    <vehicle id='W_E_188' type='standard_car' route='W_E' depart='372.0' departLane='random' departSpeed='10' />
    <vehicle id='N_S_189' type='standard_car' route='N_S' depart='372.0' departLane='random' departSpeed='10' />
    <vehicle id='E_W_190' type='standard_car' route='E_W' depart='375.0' departLane='random' departSpeed='10' />
    <vehicle id='N_S_191' type='standard_car' route='N_S' depart='379.0' departLane='random' departSpeed='10' />
    <vehicle id='N_S_192' type='standard_car' route='N_S' depart='382.0' departLane='random' departSpeed='10' />
    <vehicle id='N_W_193' type='standard_car' route='N_W' depart='383.0' departLane='random' departSpeed='10' />
    <vehicle id='S_E_194' type='standard_car' route='S_E' depart='386.0' departLane='random' departSpeed='10' />
    <vehicle id='W_S_195' type='standard_car' route='W_S' depart='387.0' departLane='random' departSpeed='10' />
    <vehicle id='S_E_196' type='standard_car' route='S_E' depart='387.0' departLane='random' departSpeed='10' />
    <vehicle id='E_N_197' type='standard_car' route='E_N' depart='388.0' departLane='random' departSpeed='10' />
    <vehicle id='S_E_198' type='standard_car' route='S_E' depart='389.0' departLane='random' departSpeed='10' />
    <vehicle id='E_W_199' type='standard_car' route='E_W' depart='389.0' departLane='random' departSpeed='10' />
    <vehicle id='E_W_200' type='standard_car' route='E_W' depart='389.0' departLane='random' departSpeed='10' />
    <vehicle id='N_S_201' type='standard_car' route='N_S' depart='390.0' departLane='random' departSpeed='10' />
    <vehicle id='W_S_202' type='standard_car' route='W_S' depart='396.0' departLane='random' departSpeed='10' />
    <vehicle id='N_S_203' type='standard_car' route='N_S' depart='398.0' departLane='random' departSpeed='10' />
    <vehicle id='N_S_204' type='standard_car' route='N_S' depart='399.0' departLane='random' departSpeed='10' />
    <vehicle id='S_E_205' type='standard_car' route='S_E' depart='401.0' departLane='random' departSpeed='10' />
    <vehicle id='W_E_206' type='standard_car' route='W_E' depart='403.0' departLane='random' departSpeed='10' />
    <vehicle id='S_E_207' type='standard_car' route='S_E' depart='403.0' departLane='random' departSpeed='10' />
    <vehicle id='E_W_208' type='standard_car' route='E_W' depart='406.0' departLane='random' departSpeed='10' />
    <vehicle id='W_S_209' type='standard_car' route='W_S' depart='407.0' departLane='random' departSpeed='10' />
    <vehicle id='E_N_210' type='standard_car' route='E_N' depart='409.0' departLane='random' departSpeed='10' />
    <vehicle id='W_E_211' type='standard_car' route='W_E' depart='410.0' departLane='random' departSpeed='10' />
    <vehicle id='W_S_212' type='standard_car' route='W_S' depart='410.0' departLane='random' departSpeed='10' />
    <vehicle id='N_S_213' type='standard_car' route='N_S' depart='410.0' departLane='random' departSpeed='10' />
    <vehicle id='N_W_214' type='standard_car' route='N_W' depart='412.0' departLane='random' departSpeed='10' />
    <vehicle id='E_W_215' type='standard_car' route='E_W' depart='412.0' departLane='random' departSpeed='10' />
    <vehicle id='W_S_216' type='standard_car' route='W_S' depart='414.0' departLane='random' departSpeed='10' />
    <vehicle id='N_W_217' type='standard_car' route='N_W' depart='417.0' departLane='random' departSpeed='10' />
    <vehicle id='N_S_218' type='standard_car' route='N_S' depart='418.0' departLane='random' departSpeed='10' />
    <vehicle id='S_E_219' type='standard_car' route='S_E' depart='418.0' departLane='random' departSpeed='10' />
    <vehicle id='E_N_220' type='standard_car' route='E_N' depart='418.0' departLane='random' departSpeed='10' />
    <vehicle id='S_N_221' type='standard_car' route='S_N' depart='419.0' departLane='random' departSpeed='10' />
    <vehicle id='E_N_222' type='standard_car' route='E_N' depart='419.0' departLane='random' departSpeed='10' />
    <vehicle id='S_E_223' type='standard_car' route='S_E' depart='419.0' departLane='random' departSpeed='10' />
    <vehicle id='S_E_224' type='standard_car' route='S_E' depart='420.0' departLane='random' departSpeed='10' />
    <vehicle id='W_S_225' type='standard_car' route='W_S' depart='420.0' departLane='random' departSpeed='10' />
    <vehicle id='N_S_226' type='standard_car' route='N_S' depart='420.0' departLane='random' departSpeed='10' />
    <vehicle id='S_N_227' type='standard_car' route='S_N' depart='421.0' departLane='random' departSpeed='10' />
    <vehicle id='E_N_228' type='standard_car' route='E_N' depart='422.0' departLane='random' departSpeed='10' />
    <vehicle id='S_N_229' type='standard_car' route='S_N' depart='422.0' departLane='random' departSpeed='10' />
    <vehicle id='N_S_230' type='standard_car' route='N_S' depart='423.0' departLane='random' departSpeed='10' />
    <vehicle id='W_E_231' type='standard_car' route='W_E' depart='423.0' departLane='random' departSpeed='10' />
    <vehicle id='W_S_232' type='standard_car' route='W_S' depart='424.0' departLane='random' departSpeed='10' />
    <vehicle id='S_E_233' type='standard_car' route='S_E' depart='424.0' departLane='random' departSpeed='10' />
    <vehicle id='W_E_234' type='standard_car' route='W_E' depart='425.0' departLane='random' departSpeed='10' />
    <vehicle id='E_N_235' type='standard_car' route='E_N' depart='425.0' departLane='random' departSpeed='10' />
    <vehicle id='E_W_236' type='standard_car' route='E_W' depart='427.0' departLane='random' departSpeed='10' />
    <vehicle id='S_E_237' type='standard_car' route='S_E' depart='428.0' departLane='random' departSpeed='10' />
    <vehicle id='W_S_238' type='standard_car' route='W_S' depart='428.0' departLane='random' departSpeed='10' />
    <vehicle id='S_N_239' type='standard_car' route='S_N' depart='430.0' departLane='random' departSpeed='10' />
    <vehicle id='S_N_240' type='standard_car' route='S_N' depart='431.0' departLane='random' departSpeed='10' />
    <vehicle id='W_S_241' type='standard_car' route='W_S' depart='432.0' departLane='random' departSpeed='10' />
    <vehicle id='S_E_242' type='standard_car' route='S_E' depart='433.0' departLane='random' departSpeed='10' />
    <vehicle id='E_W_243' type='standard_car' route='E_W' depart='433.0' departLane='random' departSpeed='10' />
    <vehicle id='N_S_244' type='standard_car' route='N_S' depart='437.0' departLane='random' departSpeed='10' />
    <vehicle id='W_S_245' type='standard_car' route='W_S' depart='438.0' departLane='random' departSpeed='10' />
    <vehicle id='S_N_246' type='standard_car' route='S_N' depart='442.0' departLane='random' departSpeed='10' />
    <vehicle id='E_W_247' type='standard_car' route='E_W' depart='443.0' departLane='random' departSpeed='10' />
    <vehicle id='N_W_248' type='standard_car' route='N_W' depart='445.0' departLane='random' departSpeed='10' />
    <vehicle id='S_N_249' type='standard_car' route='S_N' depart='445.0' departLane='random' departSpeed='10' />
    <vehicle id='S_E_250' type='standard_car' route='S_E' depart='447.0' departLane='random' departSpeed='10' />
    <vehicle id='S_N_251' type='standard_car' route='S_N' depart='449.0' departLane='random' departSpeed='10' />
    <vehicle id='N_S_252' type='standard_car' route='N_S' depart='449.0' departLane='random' departSpeed='10' />
    <vehicle id='S_E_253' type='standard_car' route='S_E' depart='450.0' departLane='random' departSpeed='10' />
    <vehicle id='S_N_254' type='standard_car' route='S_N' depart='451.0' departLane='random' departSpeed='10' />
    <vehicle id='N_S_255' type='standard_car' route='N_S' depart='451.0' departLane='random' departSpeed='10' />
    <vehicle id='W_E_256' type='standard_car' route='W_E' depart='452.0' departLane='random' departSpeed='10' />
    <vehicle id='E_N_257' type='standard_car' route='E_N' depart='452.0' departLane='random' departSpeed='10' />
    <vehicle id='E_N_258' type='standard_car' route='E_N' depart='455.0' departLane='random' departSpeed='10' />