<routes>
    <vType id="standard_car" length="5.0" maxSpeed="15" minGap="2.5" accel="2.0" decel="4.5" />
    <route id="N_S" edges="road_1_2_3 road_1_1_3"/>
    <route id="N_E" edges="road_1_2_3 road_1_1_0"/>
    <route id="N_W" edges="road_1_2_3 road_1_1_2"/>
    <route id="S_W" edges="road_1_0_1 road_1_1_2"/>
    <route id="S_E" edges="road_1_0_1 road_1_1_0"/>
    <route id="S_N" edges="road_1_0_1 road_1_1_1"/>

    <route id="W_E" edges="road_0_1_0 road_1_1_0"/>
    <route id="W_N" edges="road_0_1_0 road_1_1_1"/>
    <route id="W_S" edges="road_0_1_0 road_1_1_3"/>
    <route id="E_N" edges="road_2_1_2 road_1_1_1"/>
    <route id="E_S" edges="road_2_1_2 road_1_1_3"/>
    <route id="E_W" edges="road_2_1_2 road_1_1_2"/>
            
    <vehicle id='N_S_0' type='standard_car' route='N_S' depart='55.0' departLane='random' departSpeed='10' />
    <vehicle id='W_E_1' type='standard_car' route='W_E' depart='63.0' departLane='random' departSpeed='10' />
    <vehicle id='S_N_2' type='standard_car' route='S_N' depart='71.0' departLane='random' departSpeed='10' />
    <vehicle id='N_S_3' type='standard_car' route='N_S' depart='73.0' departLane='random' departSpeed='10' />
    <vehicle id='N_W_4' type='standard_car' route='N_W' depart='75.0' departLane='random' departSpeed='10' />
    <vehicle id='E_W_5' type='standard_car' route='E_W' depart='77.0' departLane='random' departSpeed='10' />
    <vehicle id='E_W_6' type='standard_car' route='E_W' depart='82.0' departLane='random' departSpeed='10' />
    <vehicle id='W_E_7' type='standard_car' route='W_E' depart='84.0' departLane='random' departSpeed='10' />
    <vehicle id='W_E_8' type='standard_car' route='W_E' depart='90.0' departLane='random' departSpeed='10' />
    <vehicle id='S_E_9' type='standard_car' route='S_E' depart='92.0' departLane='random' departSpeed='10' />
    <vehicle id='W_E_10' type='standard_car' route='W_E' depart='101.0' departLane='random' departSpeed='10' />
    <vehicle id='E_W_11' type='standard_car' route='E_W' depart='116.0' departLane='random' departSpeed='10' />
    <vehicle id='E_W_12' type='standard_car' route='E_W' depart='116.0' departLane='random' departSpeed='10' />
    <vehicle id='N_S_13' type='standard_car' route='N_S' depart='119.0' departLane='random' departSpeed='10' />
    <vehicle id='N_S_14' type='standard_car' route='N_S' depart='120.0' departLane='random' departSpeed='10' />
    <vehicle id='N_S_15' type='standard_car' route='N_S' depart='122.0' departLane='random' departSpeed='10' />
    <vehicle id='W_E_16' type='standard_car' route='W_E' depart='129.0' departLane='random' departSpeed='10' />
    <vehicle id='E_W_17' type='standard_car' route='E_W' depart='129.0' departLane='random' departSpeed='10' />
    <vehicle id='N_S_18' type='standard_car' route='N_S' depart='130.0' departLane='random' departSpeed='10' />
    <vehicle id='N_W_19' type='standard_car' route='N_W' depart='131.0' departLane='random' departSpeed='10' />
    <vehicle id='S_N_20' type='standard_car' route='S_N' depart='134.0' departLane='random' departSpeed='10' />
    <vehicle id='S_N_21' type='standard_car' route='S_N' depart='135.0' departLane='random' departSpeed='10' />
    <vehicle id='S_N_22' type='standard_car' route='S_N' depart='136.0' departLane='random' departSpeed='10' />
    <vehicle id='S_N_23' type='standard_car' route='S_N' depart='136.0' departLane='random' departSpeed='10' />
    <vehicle id='N_S_24' type='standard_car' route='N_S' depart='140.0' departLane='random' departSpeed='10' />
    <vehicle id='E_W_25' type='standard_car' route='E_W' depart='140.0' departLane='random' departSpeed='10' />
    <vehicle id='S_N_26' type='standard_car' route='S_N' depart='147.0' departLane='random' departSpeed='10' />
    <vehicle id='N_S_27' type='standard_car' route='N_S' depart='153.0' departLane='random' departSpeed='10' />
    <vehicle id='W_E_28' type='standard_car' route='W_E' depart='155.0' departLane='random' departSpeed='10' />
    <vehicle id='E_W_29' type='standard_car' route='E_W' depart='155.0' departLane='random' departSpeed='10' />
    <vehicle id='N_W_30' type='standard_car' route='N_W' depart='156.0' departLane='random' departSpeed='10' />
    <vehicle id='S_E_31' type='standard_car' route='S_E' depart='158.0' departLane='random' departSpeed='10' />
    <vehicle id='W_E_32' type='standard_car' route='W_E' depart='159.0' departLane='random' departSpeed='10' />
    <vehicle id='W_E_33' type='standard_car' route='W_E' depart='160.0' departLane='random' departSpeed='10' />
    <vehicle id='E_W_34' type='standard_car' route='E_W' depart='161.0' departLane='random' departSpeed='10' />
    <vehicle id='S_N_35' type='standard_car' route='S_N' depart='163.0' departLane='random' departSpeed='10' />
    <vehicle id='E_W_36' type='standard_car' route='E_W' depart='167.0' departLane='random' departSpeed='10' />
    <vehicle id='N_S_37' type='standard_car' route='N_S' depart='168.0' departLane='random' departSpeed='10' />
    <vehicle id='S_E_38' type='standard_car' route='S_E' depart='170.0' departLane='random' departSpeed='10' />
    <vehicle id='S_E_39' type='standard_car' route='S_E' depart='175.0' departLane='random' departSpeed='10' />
    <vehicle id='W_S_40' type='standard_car' route='W_S' depart='178.0' departLane='random' departSpeed='10' />
    <vehicle id='N_S_41' type='standard_car' route='N_S' depart='180.0' departLane='random' departSpeed='10' />
    <vehicle id='S_N_42' type='standard_car' route='S_N' depart='181.0' departLane='random' departSpeed='10' />
    <vehicle id='W_S_43' type='standard_car' route='W_S' depart='182.0' departLane='random' departSpeed='10' />
    <vehicle id='W_S_44' type='standard_car' route='W_S' depart='185.0' departLane='random' departSpeed='10' />
    <vehicle id='N_S_45' type='standard_car' route='N_S' depart='186.0' departLane='random' departSpeed='10' />
    <vehicle id='E_W_46' type='standard_car' route='E_W' depart='187.0' departLane='random' departSpeed='10' />
    <vehicle id='W_E_47' type='standard_car' route='W_E' depart='188.0' departLane='random' departSpeed='10' />
    <vehicle id='E_W_48' type='standard_car' route='E_W' depart='188.0' departLane='random' departSpeed='10' />
    <vehicle id='N_S_49' type='standard_car' route='N_S' depart='188.0' departLane='random' departSpeed='10' />
    <vehicle id='S_N_50' type='standard_car' route='S_N' depart='191.0' departLane='random' departSpeed='10' />
    <vehicle id='S_N_51' type='standard_car' route='S_N' depart='191.0' departLane='random' departSpeed='10' />
    <vehicle id='E_W_52' type='standard_car' route='E_W' depart='192.0' departLane='random' departSpeed='10' />
    <vehicle id='E_N_53' type='standard_car' route='E_N' depart='195.0' departLane='random' departSpeed='10' />
    <vehicle id='S_N_54' type='standard_car' route='S_N' depart='196.0' departLane='random' departSpeed='10' />
    <vehicle id='S_N_55' type='standard_car' route='S_N' depart='197.0' departLane='random' departSpeed='10' />
    <vehicle id='W_E_56' type='standard_car' route='W_E' depart='197.0' departLane='random' departSpeed='10' />
    <vehicle id='W_E_57' type='standard_car' route='W_E' depart='199.0' departLane='random' departSpeed='10' />
    <vehicle id='N_S_58' type='standard_car' route='N_S' depart='200.0' departLane='random' departSpeed='10' />
    <vehicle id='N_W_59' type='standard_car' route='N_W' depart='200.0' departLane='random' departSpeed='10' />
    <vehicle id='W_S_60' type='standard_car' route='W_S' depart='200.0' departLane='random' departSpeed='10' />
    <vehicle id='S_E_61' type='standard_car' route='S_E' depart='203.0' departLane='random' departSpeed='10' />
    <vehicle id='E_N_62' type='standard_car' route='E_N' depart='205.0' departLane='random' departSpeed='10' />
    <vehicle id='S_N_63' type='standard_car' route='S_N' depart='207.0' departLane='random' departSpeed='10' />
    <vehicle id='S_N_64' type='standard_car' route='S_N' depart='208.0' departLane='random' departSpeed='10' />
    <vehicle id='N_W_65' type='standard_car' route='N_W' depart='215.0' departLane='random' departSpeed='10' />
    <vehicle id='S_N_66' type='standard_car' route='S_N' depart='218.0' departLane='random' departSpeed='10' />
    <vehicle id='S_N_67' type='standard_car' route='S_N' depart='218.0' departLane='random' departSpeed='10' />
    <vehicle id='N_S_68' type='standard_car' route='N_S' depart='220.0' departLane='random' departSpeed='10' />
    <vehicle id='S_N_69' type='standard_car' route='S_N' depart='220.0' departLane='random' departSpeed='10' />
    <vehicle id='E_W_70' type='standard_car' route='E_W' depart='220.0' departLane='random' departSpeed='10' />
    <vehicle id='N_W_71' type='standard_car' route='N_W' depart='222.0' departLane='random' departSpeed='10' />
    <vehicle id='N_W_72' type='standard_car' route='N_W' depart='227.0' departLane='random' departSpeed='10' />
    <vehicle id='W_E_73' type='standard_car' route='W_E' depart='227.0' departLane='random' departSpeed='10' />
    <vehicle id='W_S_74' type='standard_car' route='W_S' depart='228.0' departLane='random' departSpeed='10' />
    <vehicle id='N_W_75' type='standard_car' route='N_W' depart='233.0' departLane='random' departSpeed='10' />
    <vehicle id='W_S_76' type='standard_car' route='W_S' depart='233.0' departLane='random' departSpeed='10' />
    <vehicle id='N_S_77' type='standard_car' route='N_S' depart='233.0' departLane='random' departSpeed='10' />
    <vehicle id='W_E_78' type='standard_car' route='W_E' depart='234.0' departLane='random' departSpeed='10' />
    <vehicle id='W_S_79' type='standard_car' route='W_S' depart='235.0' departLane='random' departSpeed='10' />
    <vehicle id='W_S_80' type='standard_car' route='W_S' depart='236.0' departLane='random' departSpeed='10' />
    <vehicle id='E_N_81' type='standard_car' route='E_N' depart='237.0' departLane='random' departSpeed='10' />
    <vehicle id='S_N_82' type='standard_car' route='S_N' depart='237.0' departLane='random' departSpeed='10' />
    <vehicle id='W_E_83' type='standard_car' route='W_E' depart='238.0' departLane='random' departSpeed='10' />
    <vehicle id='E_W_84' type='standard_car' route='E_W' depart='239.0' departLane='random' departSpeed='10' />
    <vehicle id='N_S_85' type='standard_car' route='N_S' depart='242.0' departLane='random' departSpeed='10' />
    <vehicle id='E_W_86' type='standard_car' route='E_W' depart='246.0' departLane='random' departSpeed='10' />
    <vehicle id='S_N_87' type='standard_car' route='S_N' depart='249.0' departLane='random' departSpeed='10' />
    <vehicle id='W_E_88' type='standard_car' route='W_E' depart='251.0' departLane='random' departSpeed='10' />
    <vehicle id='S_N_89' type='standard_car' route='S_N' depart='252.0' departLane='random' departSpeed='10' />
    <vehicle id='N_S_90' type='standard_car' route='N_S' depart='254.0' departLane='random' departSpeed='10' />
    <vehicle id='S_N_91' type='standard_car' route='S_N' depart='255.0' departLane='random' departSpeed='10' />
    <vehicle id='E_N_92' type='standard_car' route='E_N' depart='256.0' departLane='random' departSpeed='10' />
    <vehicle id='N_S_93' type='standard_car' route='N_S' depart='257.0' departLane='random' departSpeed='10' />
    <vehicle id='E_W_94' type='standard_car' route='E_W' depart='258.0' departLane='random' departSpeed='10' />
    <vehicle id='N_S_95' type='standard_car' route='N_S' depart='259.0' departLane='random' departSpeed='10' />
    <vehicle id='N_S_96' type='standard_car' route='N_S' depart='261.0' departLane='random' departSpeed='10' />
    <vehicle id='S_N_97' type='standard_car' route='S_N' depart='262.0' departLane='random' departSpeed='10' />
    <vehicle id='S_N_98' type='standard_car' route='S_N' depart='262.0' departLane='random' departSpeed='10' />
    <vehicle id='W_E_99' type='standard_car' route='W_E' depart='263.0' departLane='random' departSpeed='10' />
    <vehicle id='E_W_100' type='standard_car' route='E_W' depart='266.0' departLane='random' departSpeed='10' />
    <vehicle id='S_N_101' type='standard_car' route='S_N' depart='269.0' departLane='random' departSpeed='10' />
    <vehicle id='W_S_102' type='standard_car' route='W_S' depart='269.0' departLane='random' departSpeed='10' />
    <vehicle id='E_W_103' type='standard_car' route='E_W' depart='270.0' departLane='random' departSpeed='10' />
    <vehicle id='S_E_104' type='standard_car' route='S_E' depart='272.0' departLane='random' departSpeed='10' />
    <vehicle id='W_S_105' type='standard_car' route='W_S' depart='273.0' departLane='random' departSpeed='10' />
    <vehicle id='W_E_106' type='standard_car' route='W_E' depart='273.0' departLane='random' departSpeed='10' />
    <vehicle id='E_W_107' type='standard_car' route='E_W' depart='276.0' departLane='random' departSpeed='10' />
    <vehicle id='S_N_108' type='standard_car' route='S_N' depart='276.0' departLane='random' departSpeed='10' />
    <vehicle id='E_W_109' type='standard_car' route='E_W' depart='276.0' departLane='random' departSpeed='10' />
    <vehicle id='W_E_110' type='standard_car' route='W_E' depart='279.0' departLane='random' departSpeed='10' />
    <vehicle id='S_E_111' type='standard_car' route='S_E' depart='280.0' departLane='random' departSpeed='10' />
    <vehicle id='S_N_112' type='standard_car' route='S_N' depart='280.0' departLane='random' departSpeed='10' />
    <vehicle id='S_E_113' type='standard_car' route='S_E' depart='281.0' departLane='random' departSpeed='10' />
    <vehicle id='S_E_114' type='standard_car' route='S_E' depart='281.0' departLane='random' departSpeed='10' />
    <vehicle id='E_W_115' type='standard_car' route='E_W' depart='282.0' departLane='random' departSpeed='10' />
    <vehicle id='S_N_116' type='standard_car' route='S_N' depart='282.0' departLane='random' departSpeed='10' />
    <vehicle id='S_E_117' type='standard_car' route='S_E' depart='283.0' departLane='random' departSpeed='10' />
    <vehicle id='E_W_118' type='standard_car' route='E_W' depart='283.0' departLane='random' departSpeed='10' />
    <vehicle id='E_N_119' type='standard_car' route='E_N' depart='285.0' departLane='random' departSpeed='10' />
    <vehicle id='W_E_120' type='standard_car' route='W_E' depart='285.0' departLane='random' departSpeed='10' />
    <vehicle id='W_S_121' type='standard_car' route='W_S' depart='287.0' departLane='random' departSpeed='10' />
    <vehicle id='W_S_122' type='standard_car' route='W_S' depart='289.0' departLane='random' departSpeed='10' />
    <vehicle id='W_S_123' type='standard_car' route='W_S' depart='290.0' departLane='random' departSpeed='10' />
    <vehicle id='W_S_124' type='standard_car' route='W_S' depart='290.0' departLane='random' departSpeed='10' />
    <vehicle id='W_E_125' type='standard_car' route='W_E' depart='294.0' departLane='random' departSpeed='10' />
    <vehicle id='N_S_126' type='standard_car' route='N_S' depart='294.0' departLane='random' departSpeed='10' />
    <vehicle id='E_N_127' type='standard_car' route='E_N' depart='297.0' departLane='random' departSpeed='10' />
    <vehicle id='W_E_128' type='standard_car' route='W_E' depart='298.0' departLane='random' departSpeed='10' />
    <vehicle id='E_W_129' type='standard_car' route='E_W' depart='299.0' departLane='random' departSpeed='10' />
    <vehicle id='E_W_130' type='standard_car' route='E_W' depart='300.0' departLane='random' departSpeed='10' />
    <vehicle id='N_S_131' type='standard_car' route='N_S' depart='301.0' departLane='random' departSpeed='10' />
    <vehicle id='S_N_132' type='standard_car' route='S_N' depart='302.0' departLane='random' departSpeed='10' />
    <vehicle id='W_E_133' type='standard_car' route='W_E' depart='303.0' departLane='random' departSpeed='10' />
    <vehicle id='S_N_134' type='standard_car' route='S_N' depart='304.0' departLane='random' departSpeed='10' />
    <vehicle id='S_E_135' type='standard_car' route='S_E' depart='304.0' departLane='random' departSpeed='10' />
    <vehicle id='N_S_136' type='standard_car' route='N_S' depart='304.0' departLane='random' departSpeed='10' />
    <vehicle id='S_E_137' type='standard_car' route='S_E' depart='305.0' departLane='random' departSpeed='10' />
    <vehicle id='N_S_138' type='standard_car' route='N_S' depart='312.0' departLane='random' departSpeed='10' />
    <vehicle id='S_N_139' type='standard_car' route='S_N' depart='312.0' departLane='random' departSpeed='10' />
    <vehicle id='N_S_140' type='standard_car' route='N_S' depart='316.0' departLane='random' departSpeed='10' />
    <vehicle id='S_E_141' type='standard_car' route='S_E' depart='316.0' departLane='random' departSpeed='10' />
    <vehicle id='S_N_142' type='standard_car' route='S_N' depart='317.0' departLane='random' departSpeed='10' />
    <vehicle id='E_W_143' type='standard_car' route='E_W' depart='318.0' departLane='random' departSpeed='10' />
    <vehicle id='E_W_144' type='standard_car' route='E_W' depart='318.0' departLane='random' departSpeed='10' />
    <vehicle id='S_N_145' type='standard_car' route='S_N' depart='320.0' departLane='random' departSpeed='10' />
    <vehicle id='N_W_146' type='standard_car' route='N_W' depart='320.0' departLane='random' departSpeed='10' />
    <vehicle id='N_S_147' type='standard_car' route='N_S' depart='322.0' departLane='random' departSpeed='10' />
    <vehicle id='E_N_148' type='standard_car' route='E_N' depart='322.0' departLane='random' departSpeed='10' />
    <vehicle id='W_E_149' type='standard_car' route='W_E' depart='323.0' departLane='random' departSpeed='10' />
    <vehicle id='S_E_150' type='standard_car' route='S_E' depart='327.0' departLane='random' departSpeed='10' />
    <vehicle id='E_N_151' type='standard_car' route='E_N' depart='330.0' departLane='random' departSpeed='10' />
    <vehicle id='S_N_152' type='standard_car' route='S_N' depart='335.0' departLane='random' departSpeed='10' />
    <vehicle id='S_E_153' type='standard_car' route='S_E' depart='335.0' departLane='random' departSpeed='10' />
    <vehicle id='E_N_154' type='standard_car' route='E_N' depart='336.0' departLane='random' departSpeed='10' />
    <vehicle id='S_N_155' type='standard_car' route='S_N' depart='336.0' departLane='random' departSpeed='10' />
    <vehicle id='S_E_156' type='standard_car' route='S_E' depart='337.0' departLane='random' departSpeed='10' />
    <vehicle id='S_N_157' type='standard_car' route='S_N' depart='338.0' departLane='random' departSpeed='10' />
    <vehicle id='N_W_158' type='standard_car' route='N_W' depart='338.0' departLane='random' departSpeed='10' />
    <vehicle id='N_S_159' type='standard_car' route='N_S' depart='338.0' departLane='random' departSpeed='10' />
    <vehicle id='E_W_160' type='standard_car' route='E_W' depart='339.0' departLane='random' departSpeed='10' />
    <vehicle id='S_N_161' type='standard_car' route='S_N' depart='340.0' departLane='random' departSpeed='10' />
    <vehicle id='E_N_162' type='standard_car' route='E_N' depart='341.0' departLane='random' departSpeed='10' />
    <vehicle id='N_S_163' type='standard_car' route='N_S' depart='342.0' departLane='random' departSpeed='10' />
    <vehicle id='N_S_164' type='standard_car' route='N_S' depart='344.0' departLane='random' departSpeed='10' />
    <vehicle id='E_W_165' type='standard_car' route='E_W' depart='345.0' departLane='random' departSpeed='10' />
    <vehicle id='S_E_166' type='standard_car' route='S_E' depart='347.0' departLane='random' departSpeed='10' />
    <vehicle id='E_N_167' type='standard_car' route='E_N' depart='351.0' departLane='random' departSpeed='10' />
    <vehicle id='E_W_168' type='standard_car' route='E_W' depart='353.0' departLane='random' departSpeed='10' />
    <vehicle id='S_N_169' type='standard_car' route='S_N' depart='353.0' departLane='random' departSpeed='10' />
    <vehicle id='S_N_170' type='standard_car' route='S_N' depart='355.0' departLane='random' departSpeed='10' />
    <vehicle id='E_N_171' type='standard_car' route='E_N' depart='360.0' departLane='random' departSpeed='10' />
    <vehicle id='W_S_172' type='standard_car' route='W_S' depart='361.0' departLane='random' departSpeed='10' />
    <vehicle id='S_E_173' type='standard_car' route='S_E' depart='361.0' departLane='random' departSpeed='10' />
    <vehicle id='N_S_174' type='standard_car' route='N_S' depart='362.0' departLane='random' departSpeed='10' />
    <vehicle id='S_N_175' type='standard_car' route='S_N' depart='362.0' departLane='random' departSpeed='10' />
    <vehicle id='E_N_176' type='standard_car' route='E_N' depart='364.0' departLane='random' departSpeed='10' />
    <vehicle id='S_N_177' type='standard_car' route='S_N' depart='366.0' departLane='random' departSpeed='10' />
    <vehicle id='S_N_178' type='standard_car' route='S_N' depart='367.0' departLane='random' departSpeed='10' />
    <vehicle id='S_N_179' type='standard_car' route='S_N' depart='370.0' departLane='random' departSpeed='10' />
    <vehicle id='S_N_180' type='standard_car' route='S_N' depart='370.0' departLane='random' departSpeed='10' />
    <vehicle id='S_N_181' type='standard_car' route='S_N' depart='372.0' departLane='random' departSpeed='10' />
    <vehicle id='S_E_182' type='standard_car' route='S_E' depart='373.0' departLane='random' departSpeed='10' />
    <vehicle id='S_E_183' type='standard_car' route='S_E' depart='377.0' departLane='random' departSpeed='10' />
    <vehicle id='E_W_184' type='standard_car' route='E_W' depart='377.0' departLane='random' departSpeed='10' />
    <vehicle id='N_W_185' type='standard_car' route='N_W' depart='383.0' departLane='random' departSpeed='10' />
    <vehicle id='W_S_186' type='standard_car' route='W_S' depart='383.0' departLane='random' departSpeed='10' />
    <vehicle id='E_W_187' type='standard_car' route='E_W' depart='384.0' departLane='random' departSpeed='10' />
    <vehicle id='S_N_188' type='standard_car' route='S_N' depart='384.0' departLane='random' departSpeed='10' />
    <vehicle id='S_E_189' type='standard_car' route='S_E' depart='386.0' departLane='random' departSpeed='10' />
    <vehicle id='E_W_190' type='standard_car' route='E_W' depart='387.0' departLane='random' departSpeed='10' />
    <vehicle id='N_S_191' type='standard_car' route='N_S' depart='388.0' departLane='random' departSpeed='10' />
    <vehicle id='N_W_192' type='standard_car' route='N_W' depart='389.0' departLane='random' departSpeed='10' />
    <vehicle id='E_W_193' type='standard_car' route='E_W' depart='394.0' departLane='random' departSpeed='10' />
    <vehicle id='N_S_194' type='standard_car' route='N_S' depart='395.0' departLane='random' departSpeed='10' />
    <vehicle id='E_W_195' type='standard_car' route='E_W' depart='395.0' departLane='random' departSpeed='10' />
    <vehicle id='S_N_196' type='standard_car' route='S_N' depart='396.0' departLane='random' departSpeed='10' />
    <vehicle id='W_E_197' type='standard_car' route='W_E' depart='396.0' departLane='random' departSpeed='10' />
    <vehicle id='E_N_198' type='standard_car' route='E_N' depart='396.0' departLane='random' departSpeed='10' />
    <vehicle id='W_E_199' type='standard_car' route='W_E' depart='399.0' departLane='random' departSpeed='10' />
    <vehicle id='E_N_200' type='standard_car' route='E_N' depart='400.0' departLane='random' departSpeed='10' />
    <vehicle id='E_W_201' type='standard_car' route='E_W' depart='401.0' departLane='random' departSpeed='10' />
    <vehicle id='S_N_202' type='standard_car' route='S_N' depart='401.0' departLane='random' departSpeed='10' />
    <vehicle id='W_E_203' type='standard_car' route='W_E' depart='402.0' departLane='random' departSpeed='10' />
    <vehicle id='N_S_204' type='standard_car' route='N_S' depart='404.0' departLane='random' departSpeed='10' />
    <vehicle id='E_N_205' type='standard_car' route='E_N' depart='406.0' departLane='random' departSpeed='10' />
    <vehicle id='S_N_206' type='standard_car' route='S_N' depart='406.0' departLane='random' departSpeed='10' />
    <vehicle id='N_S_207' type='standard_car' route='N_S' depart='407.0' departLane='random' departSpeed='10' />
    <vehicle id='W_E_208' type='standard_car' route='W_E' depart='407.0' departLane='random' departSpeed='10' />
    <vehicle id='E_W_209' type='standard_car' route='E_W' depart='408.0' departLane='random' departSpeed='10' />
    <vehicle id='W_E_210' type='standard_car' route='W_E' depart='408.0' departLane='random' departSpeed='10' />
    <vehicle id='E_W_211' type='standard_car' route='E_W' depart='409.0' departLane='random' departSpeed='10' />
    <vehicle id='E_W_212' type='standard_car' route='E_W' depart='409.0' departLane='random' departSpeed='10' />
    <vehicle id='W_S_213' type='standard_car' route='W_S' depart='411.0' departLane='random' departSpeed='10' />
    <vehicle id='S_E_214' type='standard_car' route='S_E' depart='411.0' departLane='random' departSpeed='10' />
    <vehicle id='W_S_215' type='standard_car' route='W_S' depart='411.0' departLane='random' departSpeed='10' />
    <vehicle id='S_N_216' type='standard_car' route='S_N' depart='412.0' departLane='random' departSpeed='10' />
    <vehicle id='N_S_217' type='standard_car' route='N_S' depart='414.0' departLane='random' departSpeed='10' />
    <vehicle id='W_S_218' type='standard_car' route='W_S' depart='415.0' departLane='random' departSpeed='10' />
    <vehicle id='N_S_219' type='standard_car' route='N_S' depart='417.0' departLane='random' departSpeed='10' />
    <vehicle id='S_E_220' type='standard_car' route='S_E' depart='417.0' departLane='random' departSpeed='10' />
    <vehicle id='S_E_221' type='standard_car' route='S_E' depart='418.0' departLane='random' departSpeed='10' />
    <vehicle id='E_N_222' type='standard_car' route='E_N' depart='419.0' departLane='random' departSpeed='10' />
    <vehicle id='W_E_223' type='standard_car' route='W_E' depart='420.0' departLane='random' departSpeed='10' />
    <vehicle id='W_E_224' type='standard_car' route='W_E' depart='420.0' departLane='random' departSpeed='10' />
    <vehicle id='W_S_225' type='standard_car' route='W_S' depart='422.0' departLane='random' departSpeed='10' />
    <vehicle id='W_E_226' type='standard_car' route='W_E' depart='423.0' departLane='random' departSpeed='10' />
    <vehicle id='N_S_227' type='standard_car' route='N_S' depart='425.0' departLane='random' departSpeed='10' />
    <vehicle id='E_N_228' type='standard_car' route='E_N' depart='425.0' departLane='random' departSpeed='10' />
    <vehicle id='E_N_229' type='standard_car' route='E_N' depart='426.0' departLane='random' departSpeed='10' />
    <vehicle id='E_W_230' type='standard_car' route='E_W' depart='426.0' departLane='random' departSpeed='10' />
    <vehicle id='E_W_231' type='standard_car' route='E_W' depart='427.0' departLane='random' departSpeed='10' />
    <vehicle id='S_E_232' type='standard_car' route='S_E' depart='430.0' departLane='random' departSpeed='10' />
    <vehicle id='N_S_233' type='standard_car' route='N_S' depart='430.0' departLane='random' departSpeed='10' />
    <vehicle id='N_S_234' type='standard_car' route='N_S' depart='430.0' departLane='random' departSpeed='10' />
    <vehicle id='E_N_235' type='standard_car' route='E_N' depart='430.0' departLane='random' departSpeed='10' />
    <vehicle id='W_S_236' type='standard_car' route='W_S' depart='430.0' departLane='random' departSpeed='10' />
    <vehicle id='E_W_237' type='standard_car' route='E_W' depart='430.0' departLane='random' departSpeed='10' />
    <vehicle id='N_S_238' type='standard_car' route='N_S' depart='432.0' departLane='random' departSpeed='10' />
    <vehicle id='W_S_239' type='standard_car' route='W_S' depart='433.0' departLane='random' departSpeed='10' />
    <vehicle id='E_N_240' type='standard_car' route='E_N' depart='435.0' departLane='random' departSpeed='10' />
    <vehicle id='N_W_241' type='standard_car' route='N_W' depart='437.0' departLane='random' departSpeed='10' />
    <vehicle id='S_N_242' type='standard_car' route='S_N' depart='437.0' departLane='random' departSpeed='10' />
    <vehicle id='N_W_243' type='standard_car' route='N_W' depart='438.0' departLane='random' departSpeed='10' />
    <vehicle id='S_N_244' type='standard_car' route='S_N' depart='438.0' departLane='random' departSpeed='10' />
    <vehicle id='N_S_245' type='standard_car' route='N_S' depart='438.0' departLane='random' departSpeed='10' />
    <vehicle id='E_W_246' type='standard_car' route='E_W' depart='440.0' departLane='random' departSpeed='10' />
    <vehicle id='N_S_247' type='standard_car' route='N_S' depart='442.0' departLane='random' departSpeed='10' />
    <vehicle id='N_W_248' type='standard_car' route='N_W' depart='442.0' departLane='random' departSpeed='10' />
    <vehicle id='N_S_249' type='standard_car' route='N_S' depart='443.0' departLane='random' departSpeed='10' />
    <vehicle id='N_S_250' type='standard_car' route='N_S' depart='443.0' departLane='random' departSpeed='10' />
    <vehicle id='E_W_251' type='standard_car' route='E_W' depart='444.0' departLane='random' departSpeed='10' />
    <vehicle id='N_W_252' type='standard_car' route='N_W' depart='444.0' departLane='random' departSpeed='10' />
    <vehicle id='E_W_253' type='standard_car' route='E_W' depart='445.0' departLane='random' departSpeed='10' />
    <vehicle id='N_W_254' type='standard_car' route='N_W' depart='445.0' departLane='random' departSpeed='10' />
    <vehicle id='N_S_255' type='standard_car' route='N_S' depart='445.0' departLane='random' departSpeed='10' />
    <vehicle id='W_E_256' type='standard_car' route='W_E' depart='447.0' departLane='random' departSpeed='10' />
    <vehicle id='E_W_257' type='standard_car' route='E_W' depart='448.0' departLane='random' departSpeed='10' />
    <vehicle id='S_N_258' type='standard_car' route='S_N' depart='448.0' departLane='random' departSpeed='10' />