<routes>
    <vType id="standard_car" length="5.0" maxSpeed="15" minGap="2.5" accel="2.0" decel="4.5" />
    <route id="N_S" edges="road_1_2_3 road_1_1_3"/>
    <route id="N_E" edges="road_1_2_3 road_1_1_0"/>
    <route id="N_W" edges="road_1_2_3 road_1_1_2"/>
    <route id="S_W" edges="road_1_0_1 road_1_1_2"/>
    <route id="S_E" edges="road_1_0_1 road_1_1_0"/>
    <route id="S_N" edges="road_1_0_1 road_1_1_1"/>

    <route id="W_E" edges="road_0_1_0 road_1_1_0"/>
    <route id="W_N" edges="road_0_1_0 road_1_1_1"/>
    <route id="W_S" edges="road_0_1_0 road_1_1_3"/>
    <route id="E_N" edges="road_2_1_2 road_1_1_1"/>
    <route id="E_S" edges="road_2_1_2 road_1_1_3"/>
    <route id="E_W" edges="road_2_1_2 road_1_1_2"/>
            
    <vehicle id='N_S_0' type='standard_car' route='N_S' depart='18.0' departLane='random' departSpeed='10' />
    <vehicle id='S_E_1' type='standard_car' route='S_E' depart='18.0' departLane='random' departSpeed='10' />
    <vehicle id='W_E_2' type='standard_car' route='W_E' depart='20.0' departLane='random' departSpeed='10' />
    <vehicle id='S_E_3' type='standard_car' route='S_E' depart='33.0' departLane='random' departSpeed='10' />
    <vehicle id='E_N_4' type='standard_car' route='E_N' depart='47.0' departLane='random' departSpeed='10' />
    <vehicle id='N_S_5' type='standard_car' route='N_S' depart='51.0' departLane='random' departSpeed='10' />
    <vehicle id='W_S_6' type='standard_car' route='W_S' depart='52.0' departLane='random' departSpeed='10' />
    <vehicle id='S_N_7' type='standard_car' route='S_N' depart='52.0' departLane='random' departSpeed='10' />
    <vehicle id='N_W_8' type='standard_car' route='N_W' depart='53.0' departLane='random' departSpeed='10' />
    <vehicle id='W_S_9' type='standard_car' route='W_S' depart='55.0' departLane='random' departSpeed='10' />
    <vehicle id='E_W_10' type='standard_car' route='E_W' depart='57.0' departLane='random' departSpeed='10' />
    <vehicle id='W_S_11' type='standard_car' route='W_S' depart='60.0' departLane='random' departSpeed='10' />
    <vehicle id='W_E_12' type='standard_car' route='W_E' depart='62.0' departLane='random' departSpeed='10' />
    <vehicle id='S_E_13' type='standard_car' route='S_E' depart='63.0' departLane='random' departSpeed='10' />
    <vehicle id='W_E_14' type='standard_car' route='W_E' depart='63.0' departLane='random' departSpeed='10' />
    <vehicle id='N_W_15' type='standard_car' route='N_W' depart='66.0' departLane='random' departSpeed='10' />
    <vehicle id='W_E_16' type='standard_car' route='W_E' depart='68.0' departLane='random' departSpeed='10' />
    <vehicle id='E_W_17' type='standard_car' route='E_W' depart='71.0' departLane='random' departSpeed='10' />
    <vehicle id='E_W_18' type='standard_car' route='E_W' depart='72.0' departLane='random' departSpeed='10' />
    <vehicle id='E_W_19' type='standard_car' route='E_W' depart='74.0' departLane='random' departSpeed='10' />
    <vehicle id='S_E_20' type='standard_car' route='S_E' depart='75.0' departLane='random' departSpeed='10' />
    <vehicle id='S_N_21' type='standard_car' route='S_N' depart='77.0' departLane='random' departSpeed='10' />
    <vehicle id='N_S_22' type='standard_car' route='N_S' depart='77.0' departLane='random' departSpeed='10' />
    <vehicle id='W_E_23' type='standard_car' route='W_E' depart='79.0' departLane='random' departSpeed='10' />
    <vehicle id='N_W_24' type='standard_car' route='N_W' depart='79.0' departLane='random' departSpeed='10' />
    <vehicle id='W_E_25' type='standard_car' route='W_E' depart='80.0' departLane='random' departSpeed='10' />
    <vehicle id='N_W_26' type='standard_car' route='N_W' depart='81.0' departLane='random' departSpeed='10' />
    <vehicle id='W_E_27' type='standard_car' route='W_E' depart='86.0' departLane='random' departSpeed='10' />
    <vehicle id='W_E_28' type='standard_car' route='W_E' depart='86.0' departLane='random' departSpeed='10' />
    <vehicle id='E_W_29' type='standard_car' route='E_W' depart='87.0' departLane='random' departSpeed='10' />
    <vehicle id='S_N_30' type='standard_car' route='S_N' depart='93.0' departLane='random' departSpeed='10' />
    <vehicle id='E_N_31' type='standard_car' route='E_N' depart='94.0' departLane='random' departSpeed='10' />
    <vehicle id='W_E_32' type='standard_car' route='W_E' depart='96.0' departLane='random' departSpeed='10' />
    <vehicle id='E_W_33' type='standard_car' route='E_W' depart='99.0' departLane='random' departSpeed='10' />
    <vehicle id='E_W_34' type='standard_car' route='E_W' depart='100.0' departLane='random' departSpeed='10' />
    <vehicle id='W_E_35' type='standard_car' route='W_E' depart='101.0' departLane='random' departSpeed='10' />
    <vehicle id='N_S_36' type='standard_car' route='N_S' depart='102.0' departLane='random' departSpeed='10' />
    <vehicle id='N_W_37' type='standard_car' route='N_W' depart='105.0' departLane='random' departSpeed='10' />
    <vehicle id='W_E_38' type='standard_car' route='W_E' depart='105.0' departLane='random' departSpeed='10' />
    <vehicle id='E_W_39' type='standard_car' route='E_W' depart='106.0' departLane='random' departSpeed='10' />
    <vehicle id='N_S_40' type='standard_car' route='N_S' depart='107.0' departLane='random' departSpeed='10' />
    <vehicle id='E_W_41' type='standard_car' route='E_W' depart='110.0' departLane='random' departSpeed='10' />
    <vehicle id='W_E_42' type='standard_car' route='W_E' depart='111.0' departLane='random' departSpeed='10' />
    <vehicle id='N_S_43' type='standard_car' route='N_S' depart='112.0' departLane='random' departSpeed='10' />
    <vehicle id='N_S_44' type='standard_car' route='N_S' depart='113.0' departLane='random' departSpeed='10' />
    <vehicle id='E_W_45' type='standard_car' route='E_W' depart='114.0' departLane='random' departSpeed='10' />
    <vehicle id='W_S_46' type='standard_car' route='W_S' depart='115.0' departLane='random' departSpeed='10' />
    <vehicle id='S_N_47' type='standard_car' route='S_N' depart='122.0' departLane='random' departSpeed='10' />
    <vehicle id='N_S_48' type='standard_car' route='N_S' depart='123.0' departLane='random' departSpeed='10' />
    <vehicle id='S_E_49' type='standard_car' route='S_E' depart='126.0' departLane='random' departSpeed='10' />
    <vehicle id='S_N_50' type='standard_car' route='S_N' depart='129.0' departLane='random' departSpeed='10' />
    <vehicle id='E_W_51' type='standard_car' route='E_W' depart='130.0' departLane='random' departSpeed='10' />
    <vehicle id='S_N_52' type='standard_car' route='S_N' depart='133.0' departLane='random' departSpeed='10' />
    <vehicle id='N_S_53' type='standard_car' route='N_S' depart='133.0' departLane='random' departSpeed='10' />
    <vehicle id='W_S_54' type='standard_car' route='W_S' depart='135.0' departLane='random' departSpeed='10' />
    <vehicle id='W_S_55' type='standard_car' route='W_S' depart='138.0' departLane='random' departSpeed='10' />
    <vehicle id='N_S_56' type='standard_car' route='N_S' depart='138.0' departLane='random' departSpeed='10' />
    <vehicle id='E_N_57' type='standard_car' route='E_N' depart='141.0' departLane='random' departSpeed='10' />
    <vehicle id='W_S_58' type='standard_car' route='W_S' depart='142.0' departLane='random' departSpeed='10' />
    <vehicle id='W_S_59' type='standard_car' route='W_S' depart='144.0' departLane='random' departSpeed='10' />
    <vehicle id='W_E_60' type='standard_car' route='W_E' depart='146.0' departLane='random' departSpeed='10' />
    <vehicle id='S_N_61' type='standard_car' route='S_N' depart='148.0' departLane='random' departSpeed='10' />
    <vehicle id='W_E_62' type='standard_car' route='W_E' depart='150.0' departLane='random' departSpeed='10' />
    <vehicle id='S_E_63' type='standard_car' route='S_E' depart='150.0' departLane='random' departSpeed='10' />
    <vehicle id='N_S_64' type='standard_car' route='N_S' depart='155.0' departLane='random' departSpeed='10' />
    <vehicle id='W_E_65' type='standard_car' route='W_E' depart='155.0' departLane='random' departSpeed='10' />
    <vehicle id='N_S_66' type='standard_car' route='N_S' depart='157.0' departLane='random' departSpeed='10' />
    <vehicle id='W_S_67' type='standard_car' route='W_S' depart='159.0' departLane='random' departSpeed='10' />
    <vehicle id='S_E_68' type='standard_car' route='S_E' depart='161.0' departLane='random' departSpeed='10' />
    <vehicle id='N_S_69' type='standard_car' route='N_S' depart='163.0' departLane='random' departSpeed='10' />
    <vehicle id='W_S_70' type='standard_car' route='W_S' depart='163.0' departLane='random' departSpeed='10' />
    <vehicle id='N_W_71' type='standard_car' route='N_W' depart='163.0' departLane='random' departSpeed='10' />
    <vehicle id='S_N_72' type='standard_car' route='S_N' depart='165.0' departLane='random' departSpeed='10' />
    <vehicle id='S_N_73' type='standard_car' route='S_N' depart='167.0' departLane='random' departSpeed='10' />
    <vehicle id='W_S_74' type='standard_car' route='W_S' depart='168.0' departLane='random' departSpeed='10' />
    <vehicle id='S_N_75' type='standard_car' route='S_N' depart='169.0' departLane='random' departSpeed='10' />
    <vehicle id='S_N_76' type='standard_car' route='S_N' depart='170.0' departLane='random' departSpeed='10' />
    <vehicle id='S_N_77' type='standard_car' route='S_N' depart='170.0' departLane='random' departSpeed='10' />
    <vehicle id='S_N_78' type='standard_car' route='S_N' depart='170.0' departLane='random' departSpeed='10' />
    <vehicle id='S_N_79' type='standard_car' route='S_N' depart='172.0' departLane='random' departSpeed='10' />
    <vehicle id='E_N_80' type='standard_car' route='E_N' depart='172.0' departLane='random' departSpeed='10' />
    <vehicle id='E_N_81' type='standard_car' route='E_N' depart='172.0' departLane='random' departSpeed='10' />
    <vehicle id='N_W_82' type='standard_car' route='N_W' depart='173.0' departLane='random' departSpeed='10' />
    <vehicle id='S_E_83' type='standard_car' route='S_E' depart='177.0' departLane='random' departSpeed='10' />
    <vehicle id='E_W_84' type='standard_car' route='E_W' depart='177.0' departLane='random' departSpeed='10' />
    <vehicle id='W_E_85' type='standard_car' route='W_E' depart='177.0' departLane='random' departSpeed='10' />
    <vehicle id='N_W_86' type='standard_car' route='N_W' depart='179.0' departLane='random' departSpeed='10' />
    <vehicle id='S_N_87' type='standard_car' route='S_N' depart='180.0' departLane='random' departSpeed='10' />
    <vehicle id='N_S_88' type='standard_car' route='N_S' depart='180.0' departLane='random' departSpeed='10' />
    <vehicle id='S_N_89' type='standard_car' route='S_N' depart='180.0' departLane='random' departSpeed='10' />
    <vehicle id='S_E_90' type='standard_car' route='S_E' depart='181.0' departLane='random' departSpeed='10' />
    <vehicle id='S_E_91' type='standard_car' route='S_E' depart='182.0' departLane='random' departSpeed='10' />
    <vehicle id='N_S_92' type='standard_car' route='N_S' depart='183.0' departLane='random' departSpeed='10' />
    <vehicle id='S_N_93' type='standard_car' route='S_N' depart='183.0' departLane='random' departSpeed='10' />
    <vehicle id='S_E_94' type='standard_car' route='S_E' depart='184.0' departLane='random' departSpeed='10' />
    <vehicle id='W_E_95' type='standard_car' route='W_E' depart='184.0' departLane='random' departSpeed='10' />
    <vehicle id='W_E_96' type='standard_car' route='W_E' depart='185.0' departLane='random' departSpeed='10' />
    <vehicle id='S_N_97' type='standard_car' route='S_N' depart='185.0' departLane='random' departSpeed='10' />
    <vehicle id='W_E_98' type='standard_car' route='W_E' depart='186.0' departLane='random' departSpeed='10' />
    <vehicle id='E_W_99' type='standard_car' route='E_W' depart='187.0' departLane='random' departSpeed='10' />
    <vehicle id='N_S_100' type='standard_car' route='N_S' depart='188.0' departLane='random' departSpeed='10' />
    <vehicle id='E_N_101' type='standard_car' route='E_N' depart='188.0' departLane='random' departSpeed='10' />
    <vehicle id='E_N_102' type='standard_car' route='E_N' depart='190.0' departLane='random' departSpeed='10' />
    <vehicle id='N_W_103' type='standard_car' route='N_W' depart='192.0' departLane='random' departSpeed='10' />
    <vehicle id='E_W_104' type='standard_car' route='E_W' depart='192.0' departLane='random' departSpeed='10' />
    <vehicle id='S_N_105' type='standard_car' route='S_N' depart='193.0' departLane='random' departSpeed='10' />
    <vehicle id='S_E_106' type='standard_car' route='S_E' depart='194.0' departLane='random' departSpeed='10' />
    <vehicle id='S_E_107' type='standard_car' route='S_E' depart='195.0' departLane='random' departSpeed='10' />
    <vehicle id='N_S_108' type='standard_car' route='N_S' depart='196.0' departLane='random' departSpeed='10' />
    <vehicle id='E_N_109' type='standard_car' route='E_N' depart='196.0' departLane='random' departSpeed='10' />
    <vehicle id='E_W_110' type='standard_car' route='E_W' depart='196.0' departLane='random' departSpeed='10' />
    <vehicle id='E_W_111' type='standard_car' route='E_W' depart='196.0' departLane='random' departSpeed='10' />
    <vehicle id='N_W_112' type='standard_car' route='N_W' depart='197.0' departLane='random' departSpeed='10' />
    <vehicle id='S_E_113' type='standard_car' route='S_E' depart='197.0' departLane='random' departSpeed='10' />
    <vehicle id='W_E_114' type='standard_car' route='W_E' depart='199.0' departLane='random' departSpeed='10' />
    <vehicle id='N_S_115' type='standard_car' route='N_S' depart='199.0' departLane='random' departSpeed='10' />
    <vehicle id='S_E_116' type='standard_car' route='S_E' depart='203.0' departLane='random' departSpeed='10' />
    <vehicle id='N_S_117' type='standard_car' route='N_S' depart='204.0' departLane='random' departSpeed='10' />
    <vehicle id='S_E_118' type='standard_car' route='S_E' depart='206.0' departLane='random' departSpeed='10' />
    <vehicle id='W_E_119' type='standard_car' route='W_E' depart='207.0' departLane='random' departSpeed='10' />
    <vehicle id='N_W_120' type='standard_car' route='N_W' depart='208.0' departLane='random' departSpeed='10' />
    <vehicle id='S_E_121' type='standard_car' route='S_E' depart='208.0' departLane='random' departSpeed='10' />
    <vehicle id='N_S_122' type='standard_car' route='N_S' depart='209.0' departLane='random' departSpeed='10' />
    <vehicle id='E_W_123' type='standard_car' route='E_W' depart='210.0' departLane='random' departSpeed='10' />
    <vehicle id='E_W_124' type='standard_car' route='E_W' depart='215.0' departLane='random' departSpeed='10' />
    <vehicle id='S_N_125' type='standard_car' route='S_N' depart='215.0' departLane='random' departSpeed='10' />
    <vehicle id='W_E_126' type='standard_car' route='W_E' depart='216.0' departLane='random' departSpeed='10' />
    <vehicle id='N_S_127' type='standard_car' route='N_S' depart='216.0' departLane='random' departSpeed='10' />
    <vehicle id='E_N_128' type='standard_car' route='E_N' depart='220.0' departLane='random' departSpeed='10' />
    <vehicle id='W_E_129' type='standard_car' route='W_E' depart='220.0' departLane='random' departSpeed='10' />
    <vehicle id='N_S_130' type='standard_car' route='N_S' depart='221.0' departLane='random' departSpeed='10' />
    <vehicle id='W_S_131' type='standard_car' route='W_S' depart='223.0' departLane='random' departSpeed='10' />
    <vehicle id='W_E_132' type='standard_car' route='W_E' depart='225.0' departLane='random' departSpeed='10' />
    <vehicle id='E_N_133' type='standard_car' route='E_N' depart='227.0' departLane='random' departSpeed='10' />
    <vehicle id='S_E_134' type='standard_car' route='S_E' depart='230.0' departLane='random' departSpeed='10' />
    <vehicle id='W_S_135' type='standard_car' route='W_S' depart='230.0' departLane='random' departSpeed='10' />
    <vehicle id='N_W_136' type='standard_car' route='N_W' depart='231.0' departLane='random' departSpeed='10' />
    <vehicle id='N_W_137' type='standard_car' route='N_W' depart='232.0' departLane='random' departSpeed='10' />
    <vehicle id='E_W_138' type='standard_car' route='E_W' depart='232.0' departLane='random' departSpeed='10' />
    <vehicle id='W_E_139' type='standard_car' route='W_E' depart='233.0' departLane='random' departSpeed='10' />
    <vehicle id='N_S_140' type='standard_car' route='N_S' depart='234.0' departLane='random' departSpeed='10' />
    <vehicle id='N_S_141' type='standard_car' route='N_S' depart='234.0' departLane='random' departSpeed='10' />
    <vehicle id='S_N_142' type='standard_car' route='S_N' depart='234.0' departLane='random' departSpeed='10' />
    <vehicle id='S_E_143' type='standard_car' route='S_E' depart='235.0' departLane='random' departSpeed='10' />
    <vehicle id='S_N_144' type='standard_car' route='S_N' depart='236.0' departLane='random' departSpeed='10' />
    <vehicle id='S_N_145' type='standard_car' route='S_N' depart='236.0' departLane='random' departSpeed='10' />
    <vehicle id='W_E_146' type='standard_car' route='W_E' depart='239.0' departLane='random' departSpeed='10' />
    <vehicle id='W_S_147' type='standard_car' route='W_S' depart='239.0' departLane='random' departSpeed='10' />
    <vehicle id='E_N_148' type='standard_car' route='E_N' depart='239.0' departLane='random' departSpeed='10' />
    <vehicle id='N_W_149' type='standard_car' route='N_W' depart='241.0' departLane='random' departSpeed='10' />
    <vehicle id='N_S_150' type='standard_car' route='N_S' depart='241.0' departLane='random' departSpeed='10' />
    <vehicle id='E_W_151' type='standard_car' route='E_W' depart='242.0' departLane='random' departSpeed='10' />
    <vehicle id='S_E_152' type='standard_car' route='S_E' depart='242.0' departLane='random' departSpeed='10' />
    <vehicle id='S_N_153' type='standard_car' route='S_N' depart='243.0' departLane='random' departSpeed='10' />
    <vehicle id='E_W_154' type='standard_car' route='E_W' depart='244.0' departLane='random' departSpeed='10' />
    <vehicle id='S_N_155' type='standard_car' route='S_N' depart='245.0' departLane='random' departSpeed='10' />
    <vehicle id='N_W_156' type='standard_car' route='N_W' depart='246.0' departLane='random' departSpeed='10' />
    <vehicle id='W_S_157' type='standard_car' route='W_S' depart='248.0' departLane='random' departSpeed='10' />
    <vehicle id='N_W_158' type='standard_car' route='N_W' depart='248.0' departLane='random' departSpeed='10' />
    <vehicle id='S_E_159' type='standard_car' route='S_E' depart='249.0' departLane='random' departSpeed='10' />
    <vehicle id='S_N_160' type='standard_car' route='S_N' depart='249.0' departLane='random' departSpeed='10' />
    <vehicle id='E_W_161' type='standard_car' route='E_W' depart='252.0' departLane='random' departSpeed='10' />
    <vehicle id='S_E_162' type='standard_car' route='S_E' depart='252.0' departLane='random' departSpeed='10' />
    <vehicle id='S_E_163' type='standard_car' route='S_E' depart='254.0' departLane='random' departSpeed='10' />
    <vehicle id='E_N_164' type='standard_car' route='E_N' depart='254.0' departLane='random' departSpeed='10' />
    <vehicle id='E_W_165' type='standard_car' route='E_W' depart='256.0' departLane='random' departSpeed='10' />
    <vehicle id='S_N_166' type='standard_car' route='S_N' depart='257.0' departLane='random' departSpeed='10' />
    <vehicle id='N_S_167' type='standard_car' route='N_S' depart='258.0' departLane='random' departSpeed='10' />
    <vehicle id='W_E_168' type='standard_car' route='W_E' depart='258.0' departLane='random' departSpeed='10' />
    <vehicle id='S_N_169' type='standard_car' route='S_N' depart='258.0' departLane='random' departSpeed='10' />
    <vehicle id='S_E_170' type='standard_car' route='S_E' depart='259.0' departLane='random' departSpeed='10' />
    <vehicle id='S_N_171' type='standard_car' route='S_N' depart='259.0' departLane='random' departSpeed='10' />
    <vehicle id='S_N_172' type='standard_car' route='S_N' depart='260.0' departLane='random' departSpeed='10' />
    <vehicle id='W_E_173' type='standard_car' route='W_E' depart='260.0' departLane='random' departSpeed='10' />
    <vehicle id='S_N_174' type='standard_car' route='S_N' depart='260.0' departLane='random' departSpeed='10' />
    <vehicle id='E_N_175' type='standard_car' route='E_N' depart='261.0' departLane='random' departSpeed='10' />
    <vehicle id='N_W_176' type='standard_car' route='N_W' depart='265.0' departLane='random' departSpeed='10' />
    <vehicle id='N_S_177' type='standard_car' route='N_S' depart='266.0' departLane='random' departSpeed='10' />
    <vehicle id='S_N_178' type='standard_car' route='S_N' depart='267.0' departLane='random' departSpeed='10' />
    <vehicle id='S_N_179' type='standard_car' route='S_N' depart='268.0' departLane='random' departSpeed='10' />
    <vehicle id='E_N_180' type='standard_car' route='E_N' depart='271.0' departLane='random' departSpeed='10' />
    <vehicle id='W_S_181' type='standard_car' route='W_S' depart='271.0' departLane='random' departSpeed='10' />
    <vehicle id='S_N_182' type='standard_car' route='S_N' depart='274.0' departLane='random' departSpeed='10' />
    <vehicle id='S_N_183' type='standard_car' route='S_N' depart='275.0' departLane='random' departSpeed='10' />
    <vehicle id='N_S_184' type='standard_car' route='N_S' depart='276.0' departLane='random' departSpeed='10' />
    <vehicle id='N_W_185' type='standard_car' route='N_W' depart='276.0' departLane='random' departSpeed='10' />
    <vehicle id='N_S_186' type='standard_car' route='N_S' depart='276.0' departLane='random' departSpeed='10' />
    <vehicle id='N_W_187' type='standard_car' route='N_W' depart='278.0' departLane='random' departSpeed='10' />
    <vehicle id='N_W_188' type='standard_car' route='N_W' depart='279.0' departLane='random' departSpeed='10' />
    <vehicle id='E_W_189' type='standard_car' route='E_W' depart='279.0' departLane='random' departSpeed='10' />
    <vehicle id='N_W_190' type='standard_car' route='N_W' depart='281.0' departLane='random' departSpeed='10' />
    <vehicle id='E_W_191' type='standard_car' route='E_W' depart='282.0' departLane='random' departSpeed='10' />
    <vehicle id='W_E_192' type='standard_car' route='W_E' depart='282.0' departLane='random' departSpeed='10' />
    <vehicle id='W_S_193' type='standard_car' route='W_S' depart='283.0' departLane='random' departSpeed='10' />
    <vehicle id='W_E_194' type='standard_car' route='W_E' depart='284.0' departLane='random' departSpeed='10' />
    <vehicle id='N_S_195' type='standard_car' route='N_S' depart='284.0' departLane='random' departSpeed='10' />
    <vehicle id='N_S_196' type='standard_car' route='N_S' depart='285.0' departLane='random' departSpeed='10' />
    <vehicle id='E_N_197' type='standard_car' route='E_N' depart='287.0' departLane='random' departSpeed='10' />
    <vehicle id='W_S_198' type='standard_car' route='W_S' depart='288.0' departLane='random' departSpeed='10' />
    <vehicle id='N_W_199' type='standard_car' route='N_W' depart='288.0' departLane='random' departSpeed='10' />
    <vehicle id='S_E_200' type='standard_car' route='S_E' depart='289.0' departLane='random' departSpeed='10' />
    <vehicle id='S_N_201' type='standard_car' route='S_N' depart='290.0' departLane='random' departSpeed='10' />
    <vehicle id='N_W_202' type='standard_car' route='N_W' depart='290.0' departLane='random' departSpeed='10' />
    <vehicle id='N_W_203' type='standard_car' route='N_W' depart='291.0' departLane='random' departSpeed='10' />
    <vehicle id='S_N_204' type='standard_car' route='S_N' depart='291.0' departLane='random' departSpeed='10' />
    <vehicle id='W_S_205' type='standard_car' route='W_S' depart='292.0' departLane='random' departSpeed='10' />
    <vehicle id='E_N_206' type='standard_car' route='E_N' depart='293.0' departLane='random' departSpeed='10' />
    <vehicle id='W_E_207' type='standard_car' route='W_E' depart='293.0' departLane='random' departSpeed='10' />
    <vehicle id='N_S_208' type='standard_car' route='N_S' depart='293.0' departLane='random' departSpeed='10' />
    <vehicle id='N_W_209' type='standard_car' route='N_W' depart='293.0' departLane='random' departSpeed='10' />
    <vehicle id='S_N_210' type='standard_car' route='S_N' depart='293.0' departLane='random' departSpeed='10' />
    <vehicle id='W_S_211' type='standard_car' route='W_S' depart='295.0' departLane='random' departSpeed='10' />
    <vehicle id='E_W_212' type='standard_car' route='E_W' depart='296.0' departLane='random' departSpeed='10' />
    <vehicle id='E_N_213' type='standard_car' route='E_N' depart='296.0' departLane='random' departSpeed='10' />
    <vehicle id='W_E_214' type='standard_car' route='W_E' depart='297.0' departLane='random' departSpeed='10' />
    <vehicle id='N_W_215' type='standard_car' route='N_W' depart='297.0' departLane='random' departSpeed='10' />
    <vehicle id='S_E_216' type='standard_car' route='S_E' depart='297.0' departLane='random' departSpeed='10' />
    <vehicle id='W_E_217' type='standard_car' route='W_E' depart='298.0' departLane='random' departSpeed='10' />
    <vehicle id='W_S_218' type='standard_car' route='W_S' depart='299.0' departLane='random' departSpeed='10' />
    <vehicle id='N_W_219' type='standard_car' route='N_W' depart='300.0' departLane='random' departSpeed='10' />
    <vehicle id='W_E_220' type='standard_car' route='W_E' depart='301.0' departLane='random' departSpeed='10' />
    <vehicle id='W_E_221' type='standard_car' route='W_E' depart='303.0' departLane='random' departSpeed='10' />
    <vehicle id='S_N_222' type='standard_car' route='S_N' depart='305.0' departLane='random' departSpeed='10' />
    <vehicle id='E_N_223' type='standard_car' route='E_N' depart='306.0' departLane='random' departSpeed='10' />
    <vehicle id='S_N_224' type='standard_car' route='S_N' depart='307.0' departLane='random' departSpeed='10' />
    <vehicle id='W_E_225' type='standard_car' route='W_E' depart='307.0' departLane='random' departSpeed='10' />
    <vehicle id='S_N_226' type='standard_car' route='S_N' depart='308.0' departLane='random' departSpeed='10' />
    <vehicle id='W_E_227' type='standard_car' route='W_E' depart='308.0' departLane='random' departSpeed='10' />
    <vehicle id='W_E_228' type='standard_car' route='W_E' depart='308.0' departLane='random' departSpeed='10' />
    <vehicle id='E_W_229' type='standard_car' route='E_W' depart='309.0' departLane='random' departSpeed='10' />
    <vehicle id='N_S_230' type='standard_car' route='N_S' depart='311.0' departLane='random' departSpeed='10' />
    <vehicle id='N_W_231' type='standard_car' route='N_W' depart='312.0' departLane='random' departSpeed='10' />
    <vehicle id='S_E_232' type='standard_car' route='S_E' depart='313.0' departLane='random' departSpeed='10' />
    <vehicle id='S_N_233' type='standard_car' route='S_N' depart='313.0' departLane='random' departSpeed='10' />
    <vehicle id='W_E_234' type='standard_car' route='W_E' depart='313.0' departLane='random' departSpeed='10' />
    <vehicle id='W_E_235' type='standard_car' route='W_E' depart='313.0' departLane='random' departSpeed='10' />
    <vehicle id='S_E_236' type='standard_car' route='S_E' depart='315.0' departLane='random' departSpeed='10' />
    <vehicle id='E_W_237' type='standard_car' route='E_W' depart='315.0' departLane='random' departSpeed='10' />
    <vehicle id='N_S_238' type='standard_car' route='N_S' depart='315.0' departLane='random' departSpeed='10' />
    <vehicle id='N_W_239' type='standard_car' route='N_W' depart='315.0' departLane='random' departSpeed='10' />
    <vehicle id='N_S_240' type='standard_car' route='N_S' depart='315.0' departLane='random' departSpeed='10' />
    <vehicle id='S_N_241' type='standard_car' route='S_N' depart='315.0' departLane='random' departSpeed='10' />
    <vehicle id='S_E_242' type='standard_car' route='S_E' depart='316.0' departLane='random' departSpeed='10' />
    <vehicle id='N_S_243' type='standard_car' route='N_S' depart='318.0' departLane='random' departSpeed='10' />
    <vehicle id='W_S_244' type='standard_car' route='W_S' depart='320.0' departLane='random' departSpeed='10' />
    <vehicle id='N_W_245' type='standard_car' route='N_W' depart='320.0' departLane='random' departSpeed='10' />
    <vehicle id='N_W_246' type='standard_car' route='N_W' depart='320.0' departLane='random' departSpeed='10' />
    <vehicle id='E_W_247' type='standard_car' route='E_W' depart='321.0' departLane='random' departSpeed='10' />
    <vehicle id='E_N_248' type='standard_car' route='E_N' depart='322.0' departLane='random' departSpeed='10' />
    <vehicle id='W_S_249' type='standard_car' route='W_S' depart='322.0' departLane='random' departSpeed='10' />
    <vehicle id='N_S_250' type='standard_car' route='N_S' depart='323.0' departLane='random' departSpeed='10' />
    <vehicle id='S_E_251' type='standard_car' route='S_E' depart='324.0' departLane='random' departSpeed='10' />
    <vehicle id='S_E_252' type='standard_car' route='S_E' depart='325.0' departLane='random' departSpeed='10' />
    <vehicle id='W_E_253' type='standard_car' route='W_E' depart='325.0' departLane='random' departSpeed='10' />
    <vehicle id='S_E_254' type='standard_car' route='S_E' depart='326.0' departLane='random' departSpeed='10' />
    <vehicle id='W_S_255' type='standard_car' route='W_S' depart='330.0' departLane='random' departSpeed='10' />
    <vehicle id='N_W_256' type='standard_car' route='N_W' depart='332.0' departLane='random' departSpeed='10' />
    <vehicle id='N_W_257' type='standard_car' route='N_W' depart='332.0' departLane='random' departSpeed='10' />
    <vehicle id='N_W_258' type='standard_car' route='N_W' depart='333.0' departLane='random' departSpeed='10' />
    <vehicle id='W_E_259' type='standard_car' route='W_E' depart='333.0' departLane='random' departSpeed='10' />