<routes>
    <vType id="standard_car" length="5.0" maxSpeed="15" minGap="2.5" accel="2.0" decel="4.5" />
    <route id="N_S" edges="road_1_2_3 road_1_1_3"/>
    <route id="N_E" edges="road_1_2_3 road_1_1_0"/>
    <route id="N_W" edges="road_1_2_3 road_1_1_2"/>
    <route id="S_W" edges="road_1_0_1 road_1_1_2"/>
    <route id="S_E" edges="road_1_0_1 road_1_1_0"/>
    <route id="S_N" edges="road_1_0_1 road_1_1_1"/>

    <route id="W_E" edges="road_0_1_0 road_1_1_0"/>
    <route id="W_N" edges="road_0_1_0 road_1_1_1"/>
    <route id="W_S" edges="road_0_1_0 road_1_1_3"/>
    <route id="E_N" edges="road_2_1_2 road_1_1_1"/>
    <route id="E_S" edges="road_2_1_2 road_1_1_3"/>
    <route id="E_W" edges="road_2_1_2 road_1_1_2"/>
            
    <vehicle id='W_S_0' type='standard_car' route='W_S' depart='9.0' departLane='random' departSpeed='10' />
    <vehicle id='W_E_1' type='standard_car' route='W_E' depart='45.0' departLane='random' departSpeed='10' />
    <vehicle id='E_W_2' type='standard_car' route='E_W' depart='54.0' departLane='random' departSpeed='10' />
    <vehicle id='E_N_3' type='standard_car' route='E_N' depart='61.0' departLane='random' departSpeed='10' />
    <vehicle id='S_N_4' type='standard_car' route='S_N' depart='71.0' departLane='random' departSpeed='10' />
    <vehicle id='S_E_5' type='standard_car' route='S_E' depart='75.0' departLane='random' departSpeed='10' />
    <vehicle id='E_N_6' type='standard_car' route='E_N' depart='87.0' departLane='random' departSpeed='10' />
    <vehicle id='N_S_7' type='standard_car' route='N_S' depart='98.0' departLane='random' departSpeed='10' />
    <vehicle id='E_W_8' type='standard_car' route='E_W' depart='100.0' departLane='random' departSpeed='10' />
    <vehicle id='W_S_9' type='standard_car' route='W_S' depart='113.0' departLane='random' departSpeed='10' />
    <vehicle id='S_N_10' type='standard_car' route='S_N' depart='115.0' departLane='random' departSpeed='10' />
    <vehicle id='S_E_11' type='standard_car' route='S_E' depart='115.0' departLane='random' departSpeed='10' />
    <vehicle id='E_W_12' type='standard_car' route='E_W' depart='119.0' departLane='random' departSpeed='10' />
    <vehicle id='E_W_13' type='standard_car' route='E_W' depart='120.0' departLane='random' departSpeed='10' />
    <vehicle id='E_W_14' type='standard_car' route='E_W' depart='123.0' departLane='random' departSpeed='10' />
    <vehicle id='E_N_15' type='standard_car' route='E_N' depart='124.0' departLane='random' departSpeed='10' />
    <vehicle id='W_E_16' type='standard_car' route='W_E' depart='124.0' departLane='random' departSpeed='10' />
    <vehicle id='W_E_17' type='standard_car' route='W_E' depart='132.0' departLane='random' departSpeed='10' />
    <vehicle id='E_W_18' type='standard_car' route='E_W' depart='138.0' departLane='random' departSpeed='10' />
    <vehicle id='N_S_19' type='standard_car' route='N_S' depart='139.0' departLane='random' departSpeed='10' />
    <vehicle id='N_S_20' type='standard_car' route='N_S' depart='142.0' departLane='random' departSpeed='10' />
    <vehicle id='E_N_21' type='standard_car' route='E_N' depart='146.0' departLane='random' departSpeed='10' />
    <vehicle id='W_S_22' type='standard_car' route='W_S' depart='147.0' departLane='random' departSpeed='10' />
    <vehicle id='W_E_23' type='standard_car' route='W_E' depart='150.0' departLane='random' departSpeed='10' />
    <vehicle id='W_E_24' type='standard_car' route='W_E' depart='151.0' departLane='random' departSpeed='10' />
    <vehicle id='S_N_25' type='standard_car' route='S_N' depart='154.0' departLane='random' departSpeed='10' />
    <vehicle id='W_E_26' type='standard_car' route='W_E' depart='154.0' departLane='random' departSpeed='10' />
    <vehicle id='W_E_27' type='standard_car' route='W_E' depart='155.0' departLane='random' departSpeed='10' />
    <vehicle id='W_E_28' type='standard_car' route='W_E' depart='159.0' departLane='random' departSpeed='10' />
    <vehicle id='N_S_29' type='standard_car' route='N_S' depart='161.0' departLane='random' departSpeed='10' />
    <vehicle id='N_W_30' type='standard_car' route='N_W' depart='162.0' departLane='random' departSpeed='10' />
    <vehicle id='N_S_31' type='standard_car' route='N_S' depart='165.0' departLane='random' departSpeed='10' />
    <vehicle id='W_E_32' type='standard_car' route='W_E' depart='170.0' departLane='random' departSpeed='10' />
    <vehicle id='W_S_33' type='standard_car' route='W_S' depart='172.0' departLane='random' departSpeed='10' />
    <vehicle id='E_W_34' type='standard_car' route='E_W' depart='172.0' departLane='random' departSpeed='10' />
    <vehicle id='N_W_35' type='standard_car' route='N_W' depart='174.0' departLane='random' departSpeed='10' />
    <vehicle id='S_N_36' type='standard_car' route='S_N' depart='174.0' departLane='random' departSpeed='10' />
    <vehicle id='E_W_37' type='standard_car' route='E_W' depart='174.0' departLane='random' departSpeed='10' />
    <vehicle id='W_E_38' type='standard_car' route='W_E' depart='175.0' departLane='random' departSpeed='10' />
    <vehicle id='N_W_39' type='standard_car' route='N_W' depart='176.0' departLane='random' departSpeed='10' />
    <vehicle id='E_N_40' type='standard_car' route='E_N' depart='177.0' departLane='random' departSpeed='10' />
    <vehicle id='W_S_41' type='standard_car' route='W_S' depart='178.0' departLane='random' departSpeed='10' />
    <vehicle id='S_N_42' type='standard_car' route='S_N' depart='187.0' departLane='random' departSpeed='10' />
    <vehicle id='S_N_43' type='standard_car' route='S_N' depart='187.0' departLane='random' departSpeed='10' />
    <vehicle id='N_S_44' type='standard_car' route='N_S' depart='192.0' departLane='random' departSpeed='10' />
    <vehicle id='N_W_45' type='standard_car' route='N_W' depart='193.0' departLane='random' departSpeed='10' />
    <vehicle id='S_E_46' type='standard_car' route='S_E' depart='195.0' departLane='random' departSpeed='10' />
    <vehicle id='E_N_47' type='standard_car' route='E_N' depart='196.0' departLane='random' departSpeed='10' />
    <vehicle id='W_E_48' type='standard_car' route='W_E' depart='200.0' departLane='random' departSpeed='10' />
    <vehicle id='S_N_49' type='standard_car' route='S_N' depart='201.0' departLane='random' departSpeed='10' />
    <vehicle id='S_E_50' type='standard_car' route='S_E' depart='202.0' departLane='random' departSpeed='10' />
    <vehicle id='W_E_51' type='standard_car' route='W_E' depart='205.0' departLane='random' departSpeed='10' />
    <vehicle id='E_N_52' type='standard_car' route='E_N' depart='207.0' departLane='random' departSpeed='10' />
    <vehicle id='E_W_53' type='standard_car' route='E_W' depart='207.0' departLane='random' departSpeed='10' />
    <vehicle id='W_E_54' type='standard_car' route='W_E' depart='207.0' departLane='random' departSpeed='10' />
    <vehicle id='W_E_55' type='standard_car' route='W_E' depart='209.0' departLane='random' departSpeed='10' />
    <vehicle id='N_S_56' type='standard_car' route='N_S' depart='211.0' departLane='random' departSpeed='10' />
    <vehicle id='E_W_57' type='standard_car' route='E_W' depart='212.0' departLane='random' departSpeed='10' />
    <vehicle id='S_N_58' type='standard_car' route='S_N' depart='212.0' departLane='random' departSpeed='10' />
    <vehicle id='E_W_59' type='standard_car' route='E_W' depart='212.0' departLane='random' departSpeed='10' />
    <vehicle id='W_E_60' type='standard_car' route='W_E' depart='213.0' departLane='random' departSpeed='10' />
    <vehicle id='N_S_61' type='standard_car' route='N_S' depart='214.0' departLane='random' departSpeed='10' />
    <vehicle id='E_W_62' type='standard_car' route='E_W' depart='216.0' departLane='random' departSpeed='10' />
    <vehicle id='N_S_63' type='standard_car' route='N_S' depart='216.0' departLane='random' departSpeed='10' />
    <vehicle id='S_N_64' type='standard_car' route='S_N' depart='217.0' departLane='random' departSpeed='10' />
    <vehicle id='E_W_65' type='standard_car' route='E_W' depart='220.0' departLane='random' departSpeed='10' />
    <vehicle id='N_W_66' type='standard_car' route='N_W' depart='223.0' departLane='random' departSpeed='10' />
    <vehicle id='E_W_67' type='standard_car' route='E_W' depart='223.0' departLane='random' departSpeed='10' />
    <vehicle id='N_W_68' type='standard_car' route='N_W' depart='224.0' departLane='random' departSpeed='10' />
    <vehicle id='E_N_69' type='standard_car' route='E_N' depart='225.0' departLane='random' departSpeed='10' />
    <vehicle id='E_W_70' type='standard_car' route='E_W' depart='226.0' departLane='random' departSpeed='10' />
    <vehicle id='N_W_71' type='standard_car' route='N_W' depart='227.0' departLane='random' departSpeed='10' />
    <vehicle id='W_S_72' type='standard_car' route='W_S' depart='227.0' departLane='random' departSpeed='10' />
    <vehicle id='S_E_73' type='standard_car' route='S_E' depart='228.0' departLane='random' departSpeed='10' />
    <vehicle id='N_W_74' type='standard_car' route='N_W' depart='233.0' departLane='random' departSpeed='10' />
    <vehicle id='W_S_75' type='standard_car' route='W_S' depart='235.0' departLane='random' departSpeed='10' />
    <vehicle id='W_E_76' type='standard_car' route='W_E' depart='238.0' departLane='random' departSpeed='10' />
    <vehicle id='S_E_77' type='standard_car' route='S_E' depart='243.0' departLane='random' departSpeed='10' />
    <vehicle id='N_S_78' type='standard_car' route='N_S' depart='244.0' departLane='random' departSpeed='10' />
    <vehicle id='E_N_79' type='standard_car' route='E_N' depart='245.0' departLane='random' departSpeed='10' />
    <vehicle id='S_N_80' type='standard_car' route='S_N' depart='247.0' departLane='random' departSpeed='10' />
    <vehicle id='N_W_81' type='standard_car' route='N_W' depart='248.0' departLane='random' departSpeed='10' />
    <vehicle id='N_W_82' type='standard_car' route='N_W' depart='250.0' departLane='random' departSpeed='10' />
    <vehicle id='E_W_83' type='standard_car' route='E_W' depart='251.0' departLane='random' departSpeed='10' />
    <vehicle id='E_W_84' type='standard_car' route='E_W' depart='251.0' departLane='random' departSpeed='10' />
    <vehicle id='S_N_85' type='standard_car' route='S_N' depart='251.0' departLane='random' departSpeed='10' />
    <vehicle id='S_E_86' type='standard_car' route='S_E' depart='259.0' departLane='random' departSpeed='10' />
    <vehicle id='E_W_87' type='standard_car' route='E_W' depart='259.0' departLane='random' departSpeed='10' />
    <vehicle id='W_S_88' type='standard_car' route='W_S' depart='268.0' departLane='random' departSpeed='10' />
    <vehicle id='E_W_89' type='standard_car' route='E_W' depart='268.0' departLane='random' departSpeed='10' />
    <vehicle id='W_E_90' type='standard_car' route='W_E' depart='269.0' departLane='random' departSpeed='10' />
    <vehicle id='E_N_91' type='standard_car' route='E_N' depart='269.0' departLane='random' departSpeed='10' />
    <vehicle id='E_W_92' type='standard_car' route='E_W' depart='269.0' departLane='random' departSpeed='10' />
    <vehicle id='E_W_93' type='standard_car' route='E_W' depart='271.0' departLane='random' departSpeed='10' />
    <vehicle id='N_S_94' type='standard_car' route='N_S' depart='271.0' departLane='random' departSpeed='10' />
    <vehicle id='S_N_95' type='standard_car' route='S_N' depart='275.0' departLane='random' departSpeed='10' />
    <vehicle id='W_S_96' type='standard_car' route='W_S' depart='275.0' departLane='random' departSpeed='10' />
    <vehicle id='N_W_97' type='standard_car' route='N_W' depart='279.0' departLane='random' departSpeed='10' />
    <vehicle id='E_N_98' type='standard_car' route='E_N' depart='281.0' departLane='random' departSpeed='10' />
    <vehicle id='N_W_99' type='standard_car' route='N_W' depart='281.0' departLane='random' departSpeed='10' />
    <vehicle id='N_W_100' type='standard_car' route='N_W' depart='281.0' departLane='random' departSpeed='10' />
    <vehicle id='N_S_101' type='standard_car' route='N_S' depart='282.0' departLane='random' departSpeed='10' />
    <vehicle id='W_E_102' type='standard_car' route='W_E' depart='290.0' departLane='random' departSpeed='10' />
    <vehicle id='E_N_103' type='standard_car' route='E_N' depart='290.0' departLane='random' departSpeed='10' />
    <vehicle id='E_W_104' type='standard_car' route='E_W' depart='292.0' departLane='random' departSpeed='10' />
    <vehicle id='S_N_105' type='standard_car' route='S_N' depart='292.0' departLane='random' departSpeed='10' />
    <vehicle id='E_W_106' type='standard_car' route='E_W' depart='292.0' departLane='random' departSpeed='10' />
    <vehicle id='N_W_107' type='standard_car' route='N_W' depart='294.0' departLane='random' departSpeed='10' />
    <vehicle id='N_S_108' type='standard_car' route='N_S' depart='295.0' departLane='random' departSpeed='10' />
    <vehicle id='W_S_109' type='standard_car' route='W_S' depart='297.0' departLane='random' departSpeed='10' />
    <vehicle id='S_N_110' type='standard_car' route='S_N' depart='299.0' departLane='random' departSpeed='10' />
    <vehicle id='N_S_111' type='standard_car' route='N_S' depart='300.0' departLane='random' departSpeed='10' />
    <vehicle id='N_S_112' type='standard_car' route='N_S' depart='301.0' departLane='random' departSpeed='10' />
    <vehicle id='N_W_113' type='standard_car' route='N_W' depart='302.0' departLane='random' departSpeed='10' />
    <vehicle id='S_N_114' type='standard_car' route='S_N' depart='302.0' departLane='random' departSpeed='10' />
    <vehicle id='W_E_115' type='standard_car' route='W_E' depart='303.0' departLane='random' departSpeed='10' />
    <vehicle id='N_S_116' type='standard_car' route='N_S' depart='303.0' departLane='random' departSpeed='10' />
    <vehicle id='S_E_117' type='standard_car' route='S_E' depart='305.0' departLane='random' departSpeed='10' />
    <vehicle id='S_E_118' type='standard_car' route='S_E' depart='306.0' departLane='random' departSpeed='10' />
    <vehicle id='E_W_119' type='standard_car' route='E_W' depart='307.0' departLane='random' departSpeed='10' />
    <vehicle id='N_W_120' type='standard_car' route='N_W' depart='307.0' departLane='random' departSpeed='10' />
    <vehicle id='E_N_121' type='standard_car' route='E_N' depart='308.0' departLane='random' departSpeed='10' />
    <vehicle id='N_W_122' type='standard_car' route='N_W' depart='310.0' departLane='random' departSpeed='10' />
    <vehicle id='S_N_123' type='standard_car' route='S_N' depart='314.0' departLane='random' departSpeed='10' />
    <vehicle id='S_N_124' type='standard_car' route='S_N' depart='314.0' departLane='random' departSpeed='10' />
    <vehicle id='W_E_125' type='standard_car' route='W_E' depart='315.0' departLane='random' departSpeed='10' />
    <vehicle id='E_W_126' type='standard_car' route='E_W' depart='316.0' departLane='random' departSpeed='10' />
    <vehicle id='N_S_127' type='standard_car' route='N_S' depart='317.0' departLane='random' departSpeed='10' />
    <vehicle id='N_S_128' type='standard_car' route='N_S' depart='318.0' departLane='random' departSpeed='10' />
    <vehicle id='E_W_129' type='standard_car' route='E_W' depart='320.0' departLane='random' departSpeed='10' />
    <vehicle id='N_W_130' type='standard_car' route='N_W' depart='322.0' departLane='random' departSpeed='10' />
    <vehicle id='S_E_131' type='standard_car' route='S_E' depart='322.0' departLane='random' departSpeed='10' />
    <vehicle id='S_N_132' type='standard_car' route='S_N' depart='325.0' departLane='random' departSpeed='10' />
    <vehicle id='S_E_133' type='standard_car' route='S_E' depart='331.0' departLane='random' departSpeed='10' />
    <vehicle id='S_E_134' type='standard_car' route='S_E' depart='334.0' departLane='random' departSpeed='10' />
    <vehicle id='N_S_135' type='standard_car' route='N_S' depart='334.0' departLane='random' departSpeed='10' />
    <vehicle id='S_E_136' type='standard_car' route='S_E' depart='335.0' departLane='random' departSpeed='10' />
    <vehicle id='E_W_137' type='standard_car' route='E_W' depart='335.0' departLane='random' departSpeed='10' />
    <vehicle id='N_S_138' type='standard_car' route='N_S' depart='336.0' departLane='random' departSpeed='10' />
    <vehicle id='S_E_139' type='standard_car' route='S_E' depart='337.0' departLane='random' departSpeed='10' />
    <vehicle id='S_N_140' type='standard_car' route='S_N' depart='339.0' departLane='random' departSpeed='10' />
    <vehicle id='N_S_141' type='standard_car' route='N_S' depart='341.0' departLane='random' departSpeed='10' />
    <vehicle id='W_S_142' type='standard_car' route='W_S' depart='343.0' departLane='random' departSpeed='10' />
    <vehicle id='S_E_143' type='standard_car' route='S_E' depart='344.0' departLane='random' departSpeed='10' />
    <vehicle id='E_W_144' type='standard_car' route='E_W' depart='345.0' departLane='random' departSpeed='10' />
    <vehicle id='W_S_145' type='standard_car' route='W_S' depart='346.0' departLane='random' departSpeed='10' />
    <vehicle id='W_S_146' type='standard_car' route='W_S' depart='346.0' departLane='random' departSpeed='10' />
    <vehicle id='E_N_147' type='standard_car' route='E_N' depart='347.0' departLane='random' departSpeed='10' />
    <vehicle id='E_W_148' type='standard_car' route='E_W' depart='350.0' departLane='random' departSpeed='10' />
    <vehicle id='E_N_149' type='standard_car' route='E_N' depart='351.0' departLane='random' departSpeed='10' />
    <vehicle id='S_N_150' type='standard_car' route='S_N' depart='352.0' departLane='random' departSpeed='10' />
    <vehicle id='E_N_151' type='standard_car' route='E_N' depart='354.0' departLane='random' departSpeed='10' />
    <vehicle id='E_N_152' type='standard_car' route='E_N' depart='356.0' departLane='random' departSpeed='10' />
    <vehicle id='N_W_153' type='standard_car' route='N_W' depart='356.0' departLane='random' departSpeed='10' />
    <vehicle id='S_N_154' type='standard_car' route='S_N' depart='356.0' departLane='random' departSpeed='10' />
    <vehicle id='N_S_155' type='standard_car' route='N_S' depart='356.0' departLane='random' departSpeed='10' />
    <vehicle id='N_W_156' type='standard_car' route='N_W' depart='359.0' departLane='random' departSpeed='10' />
    <vehicle id='W_E_157' type='standard_car' route='W_E' depart='359.0' departLane='random' departSpeed='10' />
    <vehicle id='E_W_158' type='standard_car' route='E_W' depart='361.0' departLane='random' departSpeed='10' />
    <vehicle id='W_E_159' type='standard_car' route='W_E' depart='362.0' departLane='random' departSpeed='10' />
    <vehicle id='N_W_160' type='standard_car' route='N_W' depart='363.0' departLane='random' departSpeed='10' />
    <vehicle id='W_S_161' type='standard_car' route='W_S' depart='363.0' departLane='random' departSpeed='10' />
    <vehicle id='N_W_162' type='standard_car' route='N_W' depart='363.0' departLane='random' departSpeed='10' />
    <vehicle id='S_E_163' type='standard_car' route='S_E' depart='363.0' departLane='random' departSpeed='10' />
    <vehicle id='E_W_164' type='standard_car' route='E_W' depart='365.0' departLane='random' departSpeed='10' />
    <vehicle id='S_N_165' type='standard_car' route='S_N' depart='367.0' departLane='random' departSpeed='10' />
    <vehicle id='S_N_166' type='standard_car' route='S_N' depart='370.0' departLane='random' departSpeed='10' />
    <vehicle id='N_W_167' type='standard_car' route='N_W' depart='371.0' departLane='random' departSpeed='10' />
    <vehicle id='W_E_168' type='standard_car' route='W_E' depart='371.0' departLane='random' departSpeed='10' />
    <vehicle id='S_N_169' type='standard_car' route='S_N' depart='372.0' departLane='random' departSpeed='10' />
    <vehicle id='E_N_170' type='standard_car' route='E_N' depart='373.0' departLane='random' departSpeed='10' />
    <vehicle id='S_N_171' type='standard_car' route='S_N' depart='374.0' departLane='random' departSpeed='10' />
    <vehicle id='S_N_172' type='standard_car' route='S_N' depart='374.0' departLane='random' departSpeed='10' />
    <vehicle id='E_W_173' type='standard_car' route='E_W' depart='375.0' departLane='random' departSpeed='10' />
    <vehicle id='W_E_174' type='standard_car' route='W_E' depart='376.0' departLane='random' departSpeed='10' />
    <vehicle id='W_S_175' type='standard_car' route='W_S' depart='383.0' departLane='random' departSpeed='10' />
    <vehicle id='E_W_176' type='standard_car' route='E_W' depart='385.0' departLane='random' departSpeed='10' />
    <vehicle id='S_N_177' type='standard_car' route='S_N' depart='387.0' departLane='random' departSpeed='10' />
    <vehicle id='E_N_178' type='standard_car' route='E_N' depart='387.0' departLane='random' departSpeed='10' />
    <vehicle id='N_W_179' type='standard_car' route='N_W' depart='387.0' departLane='random' departSpeed='10' />
    <vehicle id='E_W_180' type='standard_car' route='E_W' depart='390.0' departLane='random' departSpeed='10' />
    <vehicle id='E_N_181' type='standard_car' route='E_N' depart='391.0' departLane='random' departSpeed='10' />
    <vehicle id='S_E_182' type='standard_car' route='S_E' depart='392.0' departLane='random' departSpeed='10' />
    <vehicle id='W_E_183' type='standard_car' route='W_E' depart='392.0' departLane='random' departSpeed='10' />
    <vehicle id='E_W_184' type='standard_car' route='E_W' depart='392.0' departLane='random' departSpeed='10' />
    <vehicle id='W_S_185' type='standard_car' route='W_S' depart='393.0' departLane='random' departSpeed='10' />
    <vehicle id='N_S_186' type='standard_car' route='N_S' depart='394.0' departLane='random' departSpeed='10' />
    <vehicle id='N_W_187' type='standard_car' route='N_W' depart='394.0' departLane='random' departSpeed='10' />
    <vehicle id='S_N_188' type='standard_car' route='S_N' depart='396.0' departLane='random' departSpeed='10' />
    <vehicle id='N_W_189' type='standard_car' route='N_W' depart='397.0' departLane='random' departSpeed='10' />
    <vehicle id='S_N_190' type='standard_car' route='S_N' depart='400.0' departLane='random' departSpeed='10' />
    <vehicle id='E_N_191' type='standard_car' route='E_N' depart='400.0' departLane='random' departSpeed='10' />
    <vehicle id='N_W_192' type='standard_car' route='N_W' depart='400.0' departLane='random' departSpeed='10' />
    <vehicle id='S_N_193' type='standard_car' route='S_N' depart='401.0' departLane='random' departSpeed='10' />
    <vehicle id='S_E_194' type='standard_car' route='S_E' depart='401.0' departLane='random' departSpeed='10' />
    <vehicle id='E_N_195' type='standard_car' route='E_N' depart='402.0' departLane='random' departSpeed='10' />
    <vehicle id='W_E_196' type='standard_car' route='W_E' depart='403.0' departLane='random' departSpeed='10' />
    <vehicle id='E_W_197' type='standard_car' route='E_W' depart='403.0' departLane='random' departSpeed='10' />
    <vehicle id='S_E_198' type='standard_car' route='S_E' depart='403.0' departLane='random' departSpeed='10' />
    <vehicle id='N_W_199' type='standard_car' route='N_W' depart='404.0' departLane='random' departSpeed='10' />
    <vehicle id='N_S_200' type='standard_car' route='N_S' depart='406.0' departLane='random' departSpeed='10' />
    <vehicle id='N_W_201' type='standard_car' route='N_W' depart='407.0' departLane='random' departSpeed='10' />
    <vehicle id='W_E_202' type='standard_car' route='W_E' depart='410.0' departLane='random' departSpeed='10' />
    <vehicle id='N_S_203' type='standard_car' route='N_S' depart='411.0' departLane='random' departSpeed='10' />
    <vehicle id='E_W_204' type='standard_car' route='E_W' depart='411.0' departLane='random' departSpeed='10' />
    <vehicle id='E_W_205' type='standard_car' route='E_W' depart='411.0' departLane='random' departSpeed='10' />
    <vehicle id='W_E_206' type='standard_car' route='W_E' depart='413.0' departLane='random' departSpeed='10' />
    <vehicle id='S_N_207' type='standard_car' route='S_N' depart='414.0' departLane='random' departSpeed='10' />
    <vehicle id='E_N_208' type='standard_car' route='E_N' depart='416.0' departLane='random' departSpeed='10' />
    <vehicle id='N_S_209' type='standard_car' route='N_S' depart='417.0' departLane='random' departSpeed='10' />
    <vehicle id='S_N_210' type='standard_car' route='S_N' depart='418.0' departLane='random' departSpeed='10' />
    <vehicle id='S_E_211' type='standard_car' route='S_E' depart='418.0' departLane='random' departSpeed='10' />
    <vehicle id='S_N_212' type='standard_car' route='S_N' depart='420.0' departLane='random' departSpeed='10' />
    <vehicle id='S_E_213' type='standard_car' route='S_E' depart='421.0' departLane='random' departSpeed='10' />
    <vehicle id='N_S_214' type='standard_car' route='N_S' depart='424.0' departLane='random' departSpeed='10' />
    <vehicle id='W_S_215' type='standard_car' route='W_S' depart='424.0' departLane='random' departSpeed='10' />
    <vehicle id='S_E_216' type='standard_car' route='S_E' depart='424.0' departLane='random' departSpeed='10' />
    <vehicle id='E_W_217' type='standard_car' route='E_W' depart='424.0' departLane='random' departSpeed='10' />
    <vehicle id='E_N_218' type='standard_car' route='E_N' depart='424.0' departLane='random' departSpeed='10' />
    <vehicle id='S_N_219' type='standard_car' route='S_N' depart='425.0' departLane='random' departSpeed='10' />
    <vehicle id='S_E_220' type='standard_car' route='S_E' depart='425.0' departLane='random' departSpeed='10' />
    <vehicle id='S_N_221' type='standard_car' route='S_N' depart='425.0' departLane='random' departSpeed='10' />
    <vehicle id='S_E_222' type='standard_car' route='S_E' depart='425.0' departLane='random' departSpeed='10' />
    <vehicle id='E_N_223' type='standard_car' route='E_N' depart='426.0' departLane='random' departSpeed='10' />
    <vehicle id='W_E_224' type='standard_car' route='W_E' depart='426.0' departLane='random' departSpeed='10' />
    <vehicle id='S_N_225' type='standard_car' route='S_N' depart='427.0' departLane='random' departSpeed='10' />
    <vehicle id='N_S_226' type='standard_car' route='N_S' depart='427.0' departLane='random' departSpeed='10' />
    <vehicle id='W_E_227' type='standard_car' route='W_E' depart='428.0' departLane='random' departSpeed='10' />
    <vehicle id='N_S_228' type='standard_car' route='N_S' depart='430.0' departLane='random' departSpeed='10' />
    <vehicle id='E_N_229' type='standard_car' route='E_N' depart='430.0' departLane='random' departSpeed='10' />
    <vehicle id='W_E_230' type='standard_car' route='W_E' depart='431.0' departLane='random' departSpeed='10' />
    <vehicle id='E_W_231' type='standard_car' route='E_W' depart='431.0' departLane='random' departSpeed='10' />
    <vehicle id='S_N_232' type='standard_car' route='S_N' depart='431.0' departLane='random' departSpeed='10' />
    <vehicle id='N_S_233' type='standard_car' route='N_S' depart='431.0' departLane='random' departSpeed='10' />
    <vehicle id='N_W_234' type='standard_car' route='N_W' depart='432.0' departLane='random' departSpeed='10' />
    <vehicle id='S_E_235' type='standard_car' route='S_E' depart='435.0' departLane='random' departSpeed='10' />
    <vehicle id='E_W_236' type='standard_car' route='E_W' depart='435.0' departLane='random' departSpeed='10' />
    <vehicle id='S_N_237' type='standard_car' route='S_N' depart='435.0' departLane='random' departSpeed='10' />
    <vehicle id='S_E_238' type='standard_car' route='S_E' depart='435.0' departLane='random' departSpeed='10' />
    <vehicle id='W_S_239' type='standard_car' route='W_S' depart='436.0' departLane='random' departSpeed='10' />
    <vehicle id='W_E_240' type='standard_car' route='W_E' depart='438.0' departLane='random' departSpeed='10' />
    <vehicle id='N_S_241' type='standard_car' route='N_S' depart='438.0' departLane='random' departSpeed='10' />
    <vehicle id='S_N_242' type='standard_car' route='S_N' depart='440.0' departLane='random' departSpeed='10' />
    <vehicle id='E_W_243' type='standard_car' route='E_W' depart='443.0' departLane='random' departSpeed='10' />
    <vehicle id='N_W_244' type='standard_car' route='N_W' depart='444.0' departLane='random' departSpeed='10' />
    <vehicle id='N_W_245' type='standard_car' route='N_W' depart='445.0' departLane='random' departSpeed='10' />
    <vehicle id='S_E_246' type='standard_car' route='S_E' depart='445.0' departLane='random' departSpeed='10' />
    <vehicle id='S_E_247' type='standard_car' route='S_E' depart='447.0' departLane='random' departSpeed='10' />
    <vehicle id='W_S_248' type='standard_car' route='W_S' depart='447.0' departLane='random' departSpeed='10' />
    <vehicle id='W_E_249' type='standard_car' route='W_E' depart='448.0' departLane='random' departSpeed='10' />
    <vehicle id='S_E_250' type='standard_car' route='S_E' depart='449.0' departLane='random' departSpeed='10' />
    <vehicle id='E_W_251' type='standard_car' route='E_W' depart='452.0' departLane='random' departSpeed='10' />
    <vehicle id='E_N_252' type='standard_car' route='E_N' depart='453.0' departLane='random' departSpeed='10' />
    <vehicle id='E_N_253' type='standard_car' route='E_N' depart='453.0' departLane='random' departSpeed='10' />
    <vehicle id='N_S_254' type='standard_car' route='N_S' depart='454.0' departLane='random' departSpeed='10' />
    <vehicle id='W_E_255' type='standard_car' route='W_E' depart='454.0' departLane='random' departSpeed='10' />
    <vehicle id='S_E_256' type='standard_car' route='S_E' depart='456.0' departLane='random' departSpeed='10' />
    <vehicle id='S_E_257' type='standard_car' route='S_E' depart='458.0' departLane='random' departSpeed='10' />
    <vehicle id='N_S_258' type='standard_car' route='N_S' depart='465.0' departLane='random' departSpeed='10' />