<routes>
    <vType id="standard_car" length="5.0" maxSpeed="15" minGap="2.5" accel="2.0" decel="4.5" />
    <route id="N_S" edges="road_1_2_3 road_1_1_3"/>
    <route id="N_E" edges="road_1_2_3 road_1_1_0"/>
    <route id="N_W" edges="road_1_2_3 road_1_1_2"/>
    <route id="S_W" edges="road_1_0_1 road_1_1_2"/>
    <route id="S_E" edges="road_1_0_1 road_1_1_0"/>
    <route id="S_N" edges="road_1_0_1 road_1_1_1"/>

    <route id="W_E" edges="road_0_1_0 road_1_1_0"/>
    <route id="W_N" edges="road_0_1_0 road_1_1_1"/>
    <route id="W_S" edges="road_0_1_0 road_1_1_3"/>
    <route id="E_N" edges="road_2_1_2 road_1_1_1"/>
    <route id="E_S" edges="road_2_1_2 road_1_1_3"/>
    <route id="E_W" edges="road_2_1_2 road_1_1_2"/>
            
    <vehicle id='S_E_0' type='standard_car' route='S_E' depart='73.0' departLane='random' departSpeed='10' />
    <vehicle id='S_N_1' type='standard_car' route='S_N' depart='75.0' departLane='random' departSpeed='10' />
    <vehicle id='S_N_2' type='standard_car' route='S_N' depart='85.0' departLane='random' departSpeed='10' />
    <vehicle id='S_N_3' type='standard_car' route='S_N' depart='87.0' departLane='random' departSpeed='10' />
    <vehicle id='E_W_4' type='standard_car' route='E_W' depart='93.0' departLane='random' departSpeed='10' />
    <vehicle id='E_W_5' type='standard_car' route='E_W' depart='94.0' departLane='random' departSpeed='10' />
    <vehicle id='N_W_6' type='standard_car' route='N_W' depart='106.0' departLane='random' departSpeed='10' />
    <vehicle id='N_S_7' type='standard_car' route='N_S' depart='109.0' departLane='random' departSpeed='10' />
    <vehicle id='W_S_8' type='standard_car' route='W_S' depart='112.0' departLane='random' departSpeed='10' />
    <vehicle id='N_W_9' type='standard_car' route='N_W' depart='113.0' departLane='random' departSpeed='10' />
    <vehicle id='E_W_10' type='standard_car' route='E_W' depart='127.0' departLane='random' departSpeed='10' />
    <vehicle id='W_E_11' type='standard_car' route='W_E' depart='127.0' departLane='random' departSpeed='10' />
    <vehicle id='E_W_12' type='standard_car' route='E_W' depart='128.0' departLane='random' departSpeed='10' />
    <vehicle id='W_S_13' type='standard_car' route='W_S' depart='129.0' departLane='random' departSpeed='10' />
    <vehicle id='E_N_14' type='standard_car' route='E_N' depart='130.0' departLane='random' departSpeed='10' />
    <vehicle id='N_S_15' type='standard_car' route='N_S' depart='131.0' departLane='random' departSpeed='10' />
    <vehicle id='E_N_16' type='standard_car' route='E_N' depart='133.0' departLane='random' departSpeed='10' />
    <vehicle id='E_N_17' type='standard_car' route='E_N' depart='136.0' departLane='random' departSpeed='10' />
    <vehicle id='N_S_18' type='standard_car' route='N_S' depart='141.0' departLane='random' departSpeed='10' />
    <vehicle id='E_N_19' type='standard_car' route='E_N' depart='141.0' departLane='random' departSpeed='10' />
    <vehicle id='S_E_20' type='standard_car' route='S_E' depart='143.0' departLane='random' departSpeed='10' />
    <vehicle id='S_E_21' type='standard_car' route='S_E' depart='144.0' departLane='random' departSpeed='10' />
    <vehicle id='N_S_22' type='standard_car' route='N_S' depart='146.0' departLane='random' departSpeed='10' />
    <vehicle id='E_W_23' type='standard_car' route='E_W' depart='150.0' departLane='random' departSpeed='10' />
    <vehicle id='E_W_24' type='standard_car' route='E_W' depart='152.0' departLane='random' departSpeed='10' />
    <vehicle id='W_E_25' type='standard_car' route='W_E' depart='160.0' departLane='random' departSpeed='10' />
    <vehicle id='N_S_26' type='standard_car' route='N_S' depart='163.0' departLane='random' departSpeed='10' />
    <vehicle id='S_E_27' type='standard_car' route='S_E' depart='165.0' departLane='random' departSpeed='10' />
    <vehicle id='N_S_28' type='standard_car' route='N_S' depart='169.0' departLane='random' departSpeed='10' />
    <vehicle id='N_S_29' type='standard_car' route='N_S' depart='169.0' departLane='random' departSpeed='10' />
    <vehicle id='W_S_30' type='standard_car' route='W_S' depart='178.0' departLane='random' departSpeed='10' />
    <vehicle id='W_E_31' type='standard_car' route='W_E' depart='181.0' departLane='random' departSpeed='10' />
    <vehicle id='S_E_32' type='standard_car' route='S_E' depart='183.0' departLane='random' departSpeed='10' />
    <vehicle id='N_W_33' type='standard_car' route='N_W' depart='185.0' departLane='random' departSpeed='10' />
    <vehicle id='S_E_34' type='standard_car' route='S_E' depart='185.0' departLane='random' departSpeed='10' />
    <vehicle id='S_E_35' type='standard_car' route='S_E' depart='186.0' departLane='random' departSpeed='10' />
    <vehicle id='E_W_36' type='standard_car' route='E_W' depart='187.0' departLane='random' departSpeed='10' />
    <vehicle id='E_W_37' type='standard_car' route='E_W' depart='187.0' departLane='random' departSpeed='10' />
    <vehicle id='W_S_38' type='standard_car' route='W_S' depart='189.0' departLane='random' departSpeed='10' />
    <vehicle id='W_E_39' type='standard_car' route='W_E' depart='191.0' departLane='random' departSpeed='10' />
    <vehicle id='E_N_40' type='standard_car' route='E_N' depart='192.0' departLane='random' departSpeed='10' />
    <vehicle id='W_E_41' type='standard_car' route='W_E' depart='196.0' departLane='random' departSpeed='10' />
    <vehicle id='N_S_42' type='standard_car' route='N_S' depart='203.0' departLane='random' departSpeed='10' />
    <vehicle id='E_N_43' type='standard_car' route='E_N' depart='207.0' departLane='random' departSpeed='10' />
    <vehicle id='E_N_44' type='standard_car' route='E_N' depart='207.0' departLane='random' departSpeed='10' />
    <vehicle id='N_S_45' type='standard_car' route='N_S' depart='211.0' departLane='random' departSpeed='10' />
    <vehicle id='W_S_46' type='standard_car' route='W_S' depart='211.0' departLane='random' departSpeed='10' />
    <vehicle id='S_N_47' type='standard_car' route='S_N' depart='212.0' departLane='random' departSpeed='10' />
    <vehicle id='W_E_48' type='standard_car' route='W_E' depart='214.0' departLane='random' departSpeed='10' />
    <vehicle id='S_E_49' type='standard_car' route='S_E' depart='215.0' departLane='random' departSpeed='10' />
    <vehicle id='W_E_50' type='standard_car' route='W_E' depart='217.0' departLane='random' departSpeed='10' />
    <vehicle id='N_S_51' type='standard_car' route='N_S' depart='219.0' departLane='random' departSpeed='10' />
    <vehicle id='W_S_52' type='standard_car' route='W_S' depart='222.0' departLane='random' departSpeed='10' />
    <vehicle id='N_S_53' type='standard_car' route='N_S' depart='226.0' departLane='random' departSpeed='10' />
    <vehicle id='W_E_54' type='standard_car' route='W_E' depart='228.0' departLane='random' departSpeed='10' />
    <vehicle id='S_N_55' type='standard_car' route='S_N' depart='229.0' departLane='random' departSpeed='10' />
    <vehicle id='E_W_56' type='standard_car' route='E_W' depart='230.0' departLane='random' departSpeed='10' />
    <vehicle id='N_S_57' type='standard_car' route='N_S' depart='231.0' departLane='random' departSpeed='10' />
    <vehicle id='S_E_58' type='standard_car' route='S_E' depart='234.0' departLane='random' departSpeed='10' />
    <vehicle id='N_W_59' type='standard_car' route='N_W' depart='234.0' departLane='random' departSpeed='10' />
    <vehicle id='S_N_60' type='standard_car' route='S_N' depart='235.0' departLane='random' departSpeed='10' />
    <vehicle id='W_S_61' type='standard_car' route='W_S' depart='236.0' departLane='random' departSpeed='10' />
    <vehicle id='S_N_62' type='standard_car' route='S_N' depart='240.0' departLane='random' departSpeed='10' />
    <vehicle id='N_S_63' type='standard_car' route='N_S' depart='240.0' departLane='random' departSpeed='10' />
    <vehicle id='E_N_64' type='standard_car' route='E_N' depart='240.0' departLane='random' departSpeed='10' />
    <vehicle id='S_N_65' type='standard_car' route='S_N' depart='243.0' departLane='random' departSpeed='10' />
    <vehicle id='N_S_66' type='standard_car' route='N_S' depart='243.0' departLane='random' departSpeed='10' />
    <vehicle id='W_E_67' type='standard_car' route='W_E' depart='246.0' departLane='random' departSpeed='10' />
    <vehicle id='N_S_68' type='standard_car' route='N_S' depart='248.0' departLane='random' departSpeed='10' />
    <vehicle id='E_W_69' type='standard_car' route='E_W' depart='249.0' departLane='random' departSpeed='10' />
    <vehicle id='N_S_70' type='standard_car' route='N_S' depart='252.0' departLane='random' departSpeed='10' />
    <vehicle id='N_S_71' type='standard_car' route='N_S' depart='253.0' departLane='random' departSpeed='10' />
    <vehicle id='W_S_72' type='standard_car' route='W_S' depart='257.0' departLane='random' departSpeed='10' />
    <vehicle id='S_N_73' type='standard_car' route='S_N' depart='257.0' departLane='random' departSpeed='10' />
    <vehicle id='N_S_74' type='standard_car' route='N_S' depart='257.0' departLane='random' departSpeed='10' />
    <vehicle id='E_N_75' type='standard_car' route='E_N' depart='259.0' departLane='random' departSpeed='10' />
    <vehicle id='N_S_76' type='standard_car' route='N_S' depart='259.0' departLane='random' departSpeed='10' />
    <vehicle id='S_E_77' type='standard_car' route='S_E' depart='260.0' departLane='random' departSpeed='10' />
    <vehicle id='E_W_78' type='standard_car' route='E_W' depart='260.0' departLane='random' departSpeed='10' />
    <vehicle id='S_N_79' type='standard_car' route='S_N' depart='262.0' departLane='random' departSpeed='10' />
    <vehicle id='E_W_80' type='standard_car' route='E_W' depart='264.0' departLane='random' departSpeed='10' />
    <vehicle id='W_E_81' type='standard_car' route='W_E' depart='264.0' departLane='random' departSpeed='10' />
    <vehicle id='W_E_82' type='standard_car' route='W_E' depart='267.0' departLane='random' departSpeed='10' />
    <vehicle id='N_W_83' type='standard_car' route='N_W' depart='268.0' departLane='random' departSpeed='10' />
    <vehicle id='E_W_84' type='standard_car' route='E_W' depart='268.0' departLane='random' departSpeed='10' />
    <vehicle id='W_E_85' type='standard_car' route='W_E' depart='268.0' departLane='random' departSpeed='10' />
    <vehicle id='W_S_86' type='standard_car' route='W_S' depart='268.0' departLane='random' departSpeed='10' />
    <vehicle id='E_N_87' type='standard_car' route='E_N' depart='269.0' departLane='random' departSpeed='10' />
    <vehicle id='N_S_88' type='standard_car' route='N_S' depart='269.0' departLane='random' departSpeed='10' />
    <vehicle id='S_E_89' type='standard_car' route='S_E' depart='276.0' departLane='random' departSpeed='10' />
    <vehicle id='S_E_90' type='standard_car' route='S_E' depart='276.0' departLane='random' departSpeed='10' />
    <vehicle id='N_S_91' type='standard_car' route='N_S' depart='277.0' departLane='random' departSpeed='10' />
    <vehicle id='N_W_92' type='standard_car' route='N_W' depart='277.0' departLane='random' departSpeed='10' />
    <vehicle id='N_S_93' type='standard_car' route='N_S' depart='279.0' departLane='random' departSpeed='10' />
    <vehicle id='E_N_94' type='standard_car' route='E_N' depart='281.0' departLane='random' departSpeed='10' />
    <vehicle id='W_S_95' type='standard_car' route='W_S' depart='281.0' departLane='random' departSpeed='10' />
    <vehicle id='E_W_96' type='standard_car' route='E_W' depart='282.0' departLane='random' departSpeed='10' />
    <vehicle id='W_E_97' type='standard_car' route='W_E' depart='285.0' departLane='random' departSpeed='10' />
    <vehicle id='S_E_98' type='standard_car' route='S_E' depart='289.0' departLane='random' departSpeed='10' />
    <vehicle id='W_E_99' type='standard_car' route='W_E' depart='291.0' departLane='random' departSpeed='10' />
    <vehicle id='S_N_100' type='standard_car' route='S_N' depart='291.0' departLane='random' departSpeed='10' />
    <vehicle id='S_N_101' type='standard_car' route='S_N' depart='294.0' departLane='random' departSpeed='10' />
    <vehicle id='E_W_102' type='standard_car' route='E_W' depart='294.0' departLane='random' departSpeed='10' />
    <vehicle id='W_E_103' type='standard_car' route='W_E' depart='298.0' departLane='random' departSpeed='10' />
    <vehicle id='S_E_104' type='standard_car' route='S_E' depart='298.0' departLane='random' departSpeed='10' />
    <vehicle id='S_N_105' type='standard_car' route='S_N' depart='299.0' departLane='random' departSpeed='10' />
    <vehicle id='E_W_106' type='standard_car' route='E_W' depart='301.0' departLane='random' departSpeed='10' />
    <vehicle id='S_N_107' type='standard_car' route='S_N' depart='301.0' departLane='random' departSpeed='10' />
    <vehicle id='S_N_108' type='standard_car' route='S_N' depart='303.0' departLane='random' departSpeed='10' />
    <vehicle id='N_S_109' type='standard_car' route='N_S' depart='306.0' departLane='random' departSpeed='10' />
    <vehicle id='E_W_110' type='standard_car' route='E_W' depart='308.0' departLane='random' departSpeed='10' />
    <vehicle id='S_N_111' type='standard_car' route='S_N' depart='308.0' departLane='random' departSpeed='10' />
    <vehicle id='W_S_112' type='standard_car' route='W_S' depart='310.0' departLane='random' departSpeed='10' />
    <vehicle id='N_S_113' type='standard_car' route='N_S' depart='311.0' departLane='random' departSpeed='10' />
    <vehicle id='S_N_114' type='standard_car' route='S_N' depart='312.0' departLane='random' departSpeed='10' />
    <vehicle id='E_N_115' type='standard_car' route='E_N' depart='312.0' departLane='random' departSpeed='10' />
    <vehicle id='S_E_116' type='standard_car' route='S_E' depart='317.0' departLane='random' departSpeed='10' />
    <vehicle id='N_S_117' type='standard_car' route='N_S' depart='318.0' departLane='random' departSpeed='10' />
    <vehicle id='N_W_118' type='standard_car' route='N_W' depart='319.0' departLane='random' departSpeed='10' />
    <vehicle id='N_W_119' type='standard_car' route='N_W' depart='321.0' departLane='random' departSpeed='10' />
    <vehicle id='S_E_120' type='standard_car' route='S_E' depart='321.0' departLane='random' departSpeed='10' />
    <vehicle id='W_E_121' type='standard_car' route='W_E' depart='322.0' departLane='random' departSpeed='10' />
    <vehicle id='W_S_122' type='standard_car' route='W_S' depart='323.0' departLane='random' departSpeed='10' />
    <vehicle id='W_S_123' type='standard_car' route='W_S' depart='326.0' departLane='random' departSpeed='10' />
    <vehicle id='W_S_124' type='standard_car' route='W_S' depart='326.0' departLane='random' departSpeed='10' />
    <vehicle id='S_E_125' type='standard_car' route='S_E' depart='326.0' departLane='random' departSpeed='10' />
    <vehicle id='N_S_126' type='standard_car' route='N_S' depart='328.0' departLane='random' departSpeed='10' />
    <vehicle id='W_S_127' type='standard_car' route='W_S' depart='328.0' departLane='random' departSpeed='10' />
    <vehicle id='S_N_128' type='standard_car' route='S_N' depart='329.0' departLane='random' departSpeed='10' />
    <vehicle id='E_W_129' type='standard_car' route='E_W' depart='329.0' departLane='random' departSpeed='10' />
    <vehicle id='W_S_130' type='standard_car' route='W_S' depart='329.0' departLane='random' departSpeed='10' />
    <vehicle id='S_N_131' type='standard_car' route='S_N' depart='329.0' departLane='random' departSpeed='10' />
    <vehicle id='S_E_132' type='standard_car' route='S_E' depart='330.0' departLane='random' departSpeed='10' />
    <vehicle id='S_E_133' type='standard_car' route='S_E' depart='332.0' departLane='random' departSpeed='10' />
    <vehicle id='W_E_134' type='standard_car' route='W_E' depart='333.0' departLane='random' departSpeed='10' />
    <vehicle id='W_E_135' type='standard_car' route='W_E' depart='335.0' departLane='random' departSpeed='10' />
    <vehicle id='S_E_136' type='standard_car' route='S_E' depart='336.0' departLane='random' departSpeed='10' />
    <vehicle id='W_E_137' type='standard_car' route='W_E' depart='336.0' departLane='random' departSpeed='10' />
    <vehicle id='N_S_138' type='standard_car' route='N_S' depart='336.0' departLane='random' departSpeed='10' />
    <vehicle id='S_E_139' type='standard_car' route='S_E' depart='337.0' departLane='random' departSpeed='10' />
    <vehicle id='W_E_140' type='standard_car' route='W_E' depart='338.0' departLane='random' departSpeed='10' />
    <vehicle id='E_N_141' type='standard_car' route='E_N' depart='339.0' departLane='random' departSpeed='10' />
    <vehicle id='S_E_142' type='standard_car' route='S_E' depart='340.0' departLane='random' departSpeed='10' />
    <vehicle id='W_E_143' type='standard_car' route='W_E' depart='340.0' departLane='random' departSpeed='10' />
    <vehicle id='N_W_144' type='standard_car' route='N_W' depart='341.0' departLane='random' departSpeed='10' />
    <vehicle id='W_S_145' type='standard_car' route='W_S' depart='343.0' departLane='random' departSpeed='10' />
    <vehicle id='S_N_146' type='standard_car' route='S_N' depart='344.0' departLane='random' departSpeed='10' />
    <vehicle id='W_S_147' type='standard_car' route='W_S' depart='348.0' departLane='random' departSpeed='10' />
    <vehicle id='W_E_148' type='standard_car' route='W_E' depart='349.0' departLane='random' departSpeed='10' />
    <vehicle id='S_N_149' type='standard_car' route='S_N' depart='349.0' departLane='random' departSpeed='10' />
    <vehicle id='W_S_150' type='standard_car' route='W_S' depart='350.0' departLane='random' departSpeed='10' />
    <vehicle id='E_W_151' type='standard_car' route='E_W' depart='350.0' departLane='random' departSpeed='10' />
    <vehicle id='S_N_152' type='standard_car' route='S_N' depart='351.0' departLane='random' departSpeed='10' />
    <vehicle id='W_S_153' type='standard_car' route='W_S' depart='351.0' departLane='random' departSpeed='10' />
    <vehicle id='W_E_154' type='standard_car' route='W_E' depart='352.0' departLane='random' departSpeed='10' />
    <vehicle id='N_S_155' type='standard_car' route='N_S' depart='353.0' departLane='random' departSpeed='10' />
    <vehicle id='N_W_156' type='standard_car' route='N_W' depart='356.0' departLane='random' departSpeed='10' />
    <vehicle id='W_E_157' type='standard_car' route='W_E' depart='356.0' departLane='random' departSpeed='10' />
    <vehicle id='W_E_158' type='standard_car' route='W_E' depart='358.0' departLane='random' departSpeed='10' />
    <vehicle id='S_N_159' type='standard_car' route='S_N' depart='359.0' departLane='random' departSpeed='10' />
    <vehicle id='S_E_160' type='standard_car' route='S_E' depart='360.0' departLane='random' departSpeed='10' />
    <vehicle id='S_E_161' type='standard_car' route='S_E' depart='360.0' departLane='random' departSpeed='10' />
    <vehicle id='N_S_162' type='standard_car' route='N_S' depart='363.0' departLane='random' departSpeed='10' />
    <vehicle id='W_E_163' type='standard_car' route='W_E' depart='364.0' departLane='random' departSpeed='10' />
    <vehicle id='S_N_164' type='standard_car' route='S_N' depart='364.0' departLane='random' departSpeed='10' />
    <vehicle id='S_E_165' type='standard_car' route='S_E' depart='364.0' departLane='random' departSpeed='10' />
    <vehicle id='S_E_166' type='standard_car' route='S_E' depart='366.0' departLane='random' departSpeed='10' />
    <vehicle id='E_N_167' type='standard_car' route='E_N' depart='366.0' departLane='random' departSpeed='10' />
    <vehicle id='W_S_168' type='standard_car' route='W_S' depart='368.0' departLane='random' departSpeed='10' />
    <vehicle id='E_W_169' type='standard_car' route='E_W' depart='369.0' departLane='random' departSpeed='10' />
    <vehicle id='W_E_170' type='standard_car' route='W_E' depart='372.0' departLane='random' departSpeed='10' />
    <vehicle id='W_S_171' type='standard_car' route='W_S' depart='374.0' departLane='random' departSpeed='10' />
    <vehicle id='W_E_172' type='standard_car' route='W_E' depart='377.0' departLane='random' departSpeed='10' />
    <vehicle id='E_W_173' type='standard_car' route='E_W' depart='378.0' departLane='random' departSpeed='10' />
    <vehicle id='S_E_174' type='standard_car' route='S_E' depart='380.0' departLane='random' departSpeed='10' />
    <vehicle id='N_W_175' type='standard_car' route='N_W' depart='381.0' departLane='random' departSpeed='10' />
    <vehicle id='N_S_176' type='standard_car' route='N_S' depart='382.0' departLane='random' departSpeed='10' />
    <vehicle id='N_W_177' type='standard_car' route='N_W' depart='385.0' departLane='random' departSpeed='10' />
    <vehicle id='N_S_178' type='standard_car' route='N_S' depart='387.0' departLane='random' departSpeed='10' />
    <vehicle id='E_W_179' type='standard_car' route='E_W' depart='388.0' departLane='random' departSpeed='10' />
    <vehicle id='S_N_180' type='standard_car' route='S_N' depart='389.0' departLane='random' departSpeed='10' />
    <vehicle id='N_S_181' type='standard_car' route='N_S' depart='390.0' departLane='random' departSpeed='10' />
    <vehicle id='W_E_182' type='standard_car' route='W_E' depart='390.0' departLane='random' departSpeed='10' />
    <vehicle id='E_W_183' type='standard_car' route='E_W' depart='391.0' departLane='random' departSpeed='10' />
    <vehicle id='N_S_184' type='standard_car' route='N_S' depart='393.0' departLane='random' departSpeed='10' />
    <vehicle id='W_E_185' type='standard_car' route='W_E' depart='393.0' departLane='random' departSpeed='10' />
    <vehicle id='E_W_186' type='standard_car' route='E_W' depart='393.0' departLane='random' departSpeed='10' />
    <vehicle id='W_E_187' type='standard_car' route='W_E' depart='393.0' departLane='random' departSpeed='10' />
    <vehicle id='S_N_188' type='standard_car' route='S_N' depart='394.0' departLane='random' departSpeed='10' />
    <vehicle id='E_N_189' type='standard_car' route='E_N' depart='394.0' departLane='random' departSpeed='10' />
    <vehicle id='S_E_190' type='standard_car' route='S_E' depart='394.0' departLane='random' departSpeed='10' />
    <vehicle id='W_E_191' type='standard_car' route='W_E' depart='395.0' departLane='random' departSpeed='10' />
    <vehicle id='N_S_192' type='standard_car' route='N_S' depart='396.0' departLane='random' departSpeed='10' />
    <vehicle id='W_S_193' type='standard_car' route='W_S' depart='400.0' departLane='random' departSpeed='10' />
    <vehicle id='S_N_194' type='standard_car' route='S_N' depart='402.0' departLane='random' departSpeed='10' />
    <vehicle id='S_E_195' type='standard_car' route='S_E' depart='403.0' departLane='random' departSpeed='10' />
    <vehicle id='W_S_196' type='standard_car' route='W_S' depart='405.0' departLane='random' departSpeed='10' />
    <vehicle id='N_W_197' type='standard_car' route='N_W' depart='406.0' departLane='random' departSpeed='10' />
    <vehicle id='E_N_198' type='standard_car' route='E_N' depart='406.0' departLane='random' departSpeed='10' />
    <vehicle id='E_W_199' type='standard_car' route='E_W' depart='409.0' departLane='random' departSpeed='10' />
    <vehicle id='N_W_200' type='standard_car' route='N_W' depart='409.0' departLane='random' departSpeed='10' />
    <vehicle id='S_N_201' type='standard_car' route='S_N' depart='409.0' departLane='random' departSpeed='10' />
    <vehicle id='E_W_202' type='standard_car' route='E_W' depart='410.0' departLane='random' departSpeed='10' />
    <vehicle id='W_E_203' type='standard_car' route='W_E' depart='413.0' departLane='random' departSpeed='10' />
    <vehicle id='S_N_204' type='standard_car' route='S_N' depart='414.0' departLane='random' departSpeed='10' />
    <vehicle id='W_S_205' type='standard_car' route='W_S' depart='415.0' departLane='random' departSpeed='10' />
    <vehicle id='W_S_206' type='standard_car' route='W_S' depart='416.0' departLane='random' departSpeed='10' />
    <vehicle id='S_N_207' type='standard_car' route='S_N' depart='417.0' departLane='random' departSpeed='10' />
    <vehicle id='S_E_208' type='standard_car' route='S_E' depart='418.0' departLane='random' departSpeed='10' />
    <vehicle id='W_S_209' type='standard_car' route='W_S' depart='418.0' departLane='random' departSpeed='10' />
    <vehicle id='N_W_210' type='standard_car' route='N_W' depart='419.0' departLane='random' departSpeed='10' />
    <vehicle id='W_E_211' type='standard_car' route='W_E' depart='421.0' departLane='random' departSpeed='10' />
    <vehicle id='S_E_212' type='standard_car' route='S_E' depart='421.0' departLane='random' departSpeed='10' />
    <vehicle id='W_S_213' type='standard_car' route='W_S' depart='421.0' departLane='random' departSpeed='10' />
    <vehicle id='S_N_214' type='standard_car' route='S_N' depart='421.0' departLane='random' departSpeed='10' />
    <vehicle id='E_W_215' type='standard_car' route='E_W' depart='421.0' departLane='random' departSpeed='10' />
    <vehicle id='E_N_216' type='standard_car' route='E_N' depart='422.0' departLane='random' departSpeed='10' />
    <vehicle id='N_S_217' type='standard_car' route='N_S' depart='423.0' departLane='random' departSpeed='10' />
    <vehicle id='W_E_218' type='standard_car' route='W_E' depart='423.0' departLane='random' departSpeed='10' />
    <vehicle id='W_E_219' type='standard_car' route='W_E' depart='424.0' departLane='random' departSpeed='10' />
    <vehicle id='N_W_220' type='standard_car' route='N_W' depart='425.0' departLane='random' departSpeed='10' />
    <vehicle id='W_E_221' type='standard_car' route='W_E' depart='425.0' departLane='random' departSpeed='10' />
    <vehicle id='E_W_222' type='standard_car' route='E_W' depart='425.0' departLane='random' departSpeed='10' />
    <vehicle id='W_E_223' type='standard_car' route='W_E' depart='426.0' departLane='random' departSpeed='10' />
    <vehicle id='N_S_224' type='standard_car' route='N_S' depart='427.0' departLane='random' departSpeed='10' />
    <vehicle id='W_S_225' type='standard_car' route='W_S' depart='427.0' departLane='random' departSpeed='10' />
    <vehicle id='S_E_226' type='standard_car' route='S_E' depart='428.0' departLane='random' departSpeed='10' />
    <vehicle id='W_S_227' type='standard_car' route='W_S' depart='429.0' departLane='random' departSpeed='10' />
    <vehicle id='W_E_228' type='standard_car' route='W_E' depart='429.0' departLane='random' departSpeed='10' />
    <vehicle id='W_E_229' type='standard_car' route='W_E' depart='429.0' departLane='random' departSpeed='10' />
    <vehicle id='S_N_230' type='standard_car' route='S_N' depart='431.0' departLane='random' departSpeed='10' />
    <vehicle id='N_S_231' type='standard_car' route='N_S' depart='431.0' departLane='random' departSpeed='10' />
    <vehicle id='S_N_232' type='standard_car' route='S_N' depart='431.0' departLane='random' departSpeed='10' />
    <vehicle id='S_N_233' type='standard_car' route='S_N' depart='432.0' departLane='random' departSpeed='10' />
    <vehicle id='W_S_234' type='standard_car' route='W_S' depart='433.0' departLane='random' departSpeed='10' />
    <vehicle id='W_S_235' type='standard_car' route='W_S' depart='435.0' departLane='random' departSpeed='10' />
    <vehicle id='E_N_236' type='standard_car' route='E_N' depart='436.0' departLane='random' departSpeed='10' />
    <vehicle id='W_S_237' type='standard_car' route='W_S' depart='436.0' departLane='random' departSpeed='10' />
    <vehicle id='E_W_238' type='standard_car' route='E_W' depart='437.0' departLane='random' departSpeed='10' />
    <vehicle id='W_E_239' type='standard_car' route='W_E' depart='437.0' departLane='random' departSpeed='10' />
    <vehicle id='E_W_240' type='standard_car' route='E_W' depart='441.0' departLane='random' departSpeed='10' />
    <vehicle id='E_N_241' type='standard_car' route='E_N' depart='442.0' departLane='random' departSpeed='10' />
    <vehicle id='S_E_242' type='standard_car' route='S_E' depart='443.0' departLane='random' departSpeed='10' />
    <vehicle id='W_E_243' type='standard_car' route='W_E' depart='444.0' departLane='random' departSpeed='10' />
    <vehicle id='N_S_244' type='standard_car' route='N_S' depart='444.0' departLane='random' departSpeed='10' />
    <vehicle id='W_S_245' type='standard_car' route='W_S' depart='444.0' departLane='random' departSpeed='10' />
    <vehicle id='S_N_246' type='standard_car' route='S_N' depart='446.0' departLane='random' departSpeed='10' />
    <vehicle id='S_N_247' type='standard_car' route='S_N' depart='447.0' departLane='random' departSpeed='10' />
    <vehicle id='W_S_248' type='standard_car' route='W_S' depart='448.0' departLane='random' departSpeed='10' />
    <vehicle id='E_W_249' type='standard_car' route='E_W' depart='448.0' departLane='random' departSpeed='10' />
    <vehicle id='S_E_250' type='standard_car' route='S_E' depart='448.0' departLane='random' departSpeed='10' />
    <vehicle id='W_E_251' type='standard_car' route='W_E' depart='451.0' departLane='random' departSpeed='10' />
    <vehicle id='W_E_252' type='standard_car' route='W_E' depart='451.0' departLane='random' departSpeed='10' />
    <vehicle id='S_E_253' type='standard_car' route='S_E' depart='452.0' departLane='random' departSpeed='10' />
    <vehicle id='W_S_254' type='standard_car' route='W_S' depart='454.0' departLane='random' departSpeed='10' />
    <vehicle id='N_W_255' type='standard_car' route='N_W' depart='455.0' departLane='random' departSpeed='10' />
    <vehicle id='S_N_256' type='standard_car' route='S_N' depart='455.0' departLane='random' departSpeed='10' />
    <vehicle id='E_W_257' type='standard_car' route='E_W' depart='455.0' departLane='random' departSpeed='10' />
    <vehicle id='N_S_258' type='standard_car' route='N_S' depart='455.0' departLane='random' departSpeed='10' />