<routes>
    <vType id="standard_car" length="5.0" maxSpeed="15" minGap="2.5" accel="2.0" decel="4.5" />
    <route id="N_S" edges="road_1_2_3 road_1_1_3"/>
    <route id="N_E" edges="road_1_2_3 road_1_1_0"/>
    <route id="N_W" edges="road_1_2_3 road_1_1_2"/>
    <route id="S_W" edges="road_1_0_1 road_1_1_2"/>
    <route id="S_E" edges="road_1_0_1 road_1_1_0"/>
    <route id="S_N" edges="road_1_0_1 road_1_1_1"/>

    <route id="W_E" edges="road_0_1_0 road_1_1_0"/>
    <route id="W_N" edges="road_0_1_0 road_1_1_1"/>
    <route id="W_S" edges="road_0_1_0 road_1_1_3"/>
    <route id="E_N" edges="road_2_1_2 road_1_1_1"/>
    <route id="E_S" edges="road_2_1_2 road_1_1_3"/>
    <route id="E_W" edges="road_2_1_2 road_1_1_2"/>
            
    <vehicle id='E_W_0' type='standard_car' route='E_W' depart='30.0' departLane='random' departSpeed='10' />
    <vehicle id='S_N_1' type='standard_car' route='S_N' depart='35.0' departLane='random' departSpeed='10' />
    <vehicle id='W_E_2' type='standard_car' route='W_E' depart='36.0' departLane='random' departSpeed='10' />
    <vehicle id='N_W_3' type='standard_car' route='N_W' depart='38.0' departLane='random' departSpeed='10' />
    <vehicle id='W_S_4' type='standard_car' route='W_S' depart='55.0' departLane='random' departSpeed='10' />
    <vehicle id='W_E_5' type='standard_car' route='W_E' depart='85.0' departLane='random' departSpeed='10' />
    <vehicle id='N_S_6' type='standard_car' route='N_S' depart='98.0' departLane='random' departSpeed='10' />
    <vehicle id='S_E_7' type='standard_car' route='S_E' depart='99.0' departLane='random' departSpeed='10' />
    <vehicle id='W_S_8' type='standard_car' route='W_S' depart='103.0' departLane='random' departSpeed='10' />
    <vehicle id='S_N_9' type='standard_car' route='S_N' depart='103.0' departLane='random' departSpeed='10' />
    <vehicle id='S_N_10' type='standard_car' route='S_N' depart='108.0' departLane='random' departSpeed='10' />
    <vehicle id='S_N_11' type='standard_car' route='S_N' depart='111.0' departLane='random' departSpeed='10' />
    <vehicle id='S_E_12' type='standard_car' route='S_E' depart='113.0' departLane='random' departSpeed='10' />
    <vehicle id='N_S_13' type='standard_car' route='N_S' depart='115.0' departLane='random' departSpeed='10' />
    <vehicle id='E_W_14' type='standard_car' route='E_W' depart='116.0' departLane='random' departSpeed='10' />
    <vehicle id='E_W_15' type='standard_car' route='E_W' depart='118.0' departLane='random' departSpeed='10' />
    <vehicle id='W_E_16' type='standard_car' route='W_E' depart='120.0' departLane='random' departSpeed='10' />
    <vehicle id='S_N_17' type='standard_car' route='S_N' depart='122.0' departLane='random' departSpeed='10' />
    <vehicle id='N_W_18' type='standard_car' route='N_W' depart='141.0' departLane='random' departSpeed='10' />
    <vehicle id='E_W_19' type='standard_car' route='E_W' depart='143.0' departLane='random' departSpeed='10' />
    <vehicle id='N_W_20' type='standard_car' route='N_W' depart='144.0' departLane='random' departSpeed='10' />
    <vehicle id='W_S_21' type='standard_car' route='W_S' depart='147.0' departLane='random' departSpeed='10' />
    <vehicle id='W_S_22' type='standard_car' route='W_S' depart='152.0' departLane='random' departSpeed='10' />
    <vehicle id='N_W_23' type='standard_car' route='N_W' depart='152.0' departLane='random' departSpeed='10' />
    <vehicle id='E_W_24' type='standard_car' route='E_W' depart='169.0' departLane='random' departSpeed='10' />
    <vehicle id='S_N_25' type='standard_car' route='S_N' depart='171.0' departLane='random' departSpeed='10' />
    <vehicle id='N_W_26' type='standard_car' route='N_W' depart='172.0' departLane='random' departSpeed='10' />
    <vehicle id='S_N_27' type='standard_car' route='S_N' depart='172.0' departLane='random' departSpeed='10' />
    <vehicle id='N_W_28' type='standard_car' route='N_W' depart='172.0' departLane='random' departSpeed='10' />
    <vehicle id='S_N_29' type='standard_car' route='S_N' depart='175.0' departLane='random' departSpeed='10' />
    <vehicle id='S_N_30' type='standard_car' route='S_N' depart='175.0' departLane='random' departSpeed='10' />
    <vehicle id='S_E_31' type='standard_car' route='S_E' depart='180.0' departLane='random' departSpeed='10' />
    <vehicle id='S_N_32' type='standard_car' route='S_N' depart='180.0' departLane='random' departSpeed='10' />
    <vehicle id='E_W_33' type='standard_car' route='E_W' depart='186.0' departLane='random' departSpeed='10' />
    <vehicle id='E_N_34' type='standard_car' route='E_N' depart='189.0' departLane='random' departSpeed='10' />
    <vehicle id='N_S_35' type='standard_car' route='N_S' depart='190.0' departLane='random' departSpeed='10' />
    <vehicle id='N_W_36' type='standard_car' route='N_W' depart='190.0' departLane='random' departSpeed='10' />
    <vehicle id='S_E_37' type='standard_car' route='S_E' depart='191.0' departLane='random' departSpeed='10' />
    <vehicle id='N_W_38' type='standard_car' route='N_W' depart='201.0' departLane='random' departSpeed='10' />
    <vehicle id='E_W_39' type='standard_car' route='E_W' depart='201.0' departLane='random' departSpeed='10' />
    <vehicle id='E_N_40' type='standard_car' route='E_N' depart='204.0' departLane='random' departSpeed='10' />
    <vehicle id='S_N_41' type='standard_car' route='S_N' depart='205.0' departLane='random' departSpeed='10' />
    <vehicle id='S_E_42' type='standard_car' route='S_E' depart='206.0' departLane='random' departSpeed='10' />
    <vehicle id='E_W_43' type='standard_car' route='E_W' depart='207.0' departLane='random' departSpeed='10' />
    <vehicle id='S_E_44' type='standard_car' route='S_E' depart='208.0' departLane='random' departSpeed='10' />
    <vehicle id='N_W_45' type='standard_car' route='N_W' depart='209.0' departLane='random' departSpeed='10' />
    <vehicle id='W_E_46' type='standard_car' route='W_E' depart='211.0' departLane='random' departSpeed='10' />
    <vehicle id='S_E_47' type='standard_car' route='S_E' depart='211.0' departLane='random' departSpeed='10' />
    <vehicle id='W_E_48' type='standard_car' route='W_E' depart='215.0' departLane='random' departSpeed='10' />
    <vehicle id='W_E_49' type='standard_car' route='W_E' depart='215.0' departLane='random' departSpeed='10' />
    <vehicle id='S_E_50' type='standard_car' route='S_E' depart='216.0' departLane='random' departSpeed='10' />
    <vehicle id='S_N_51' type='standard_car' route='S_N' depart='218.0' departLane='random' departSpeed='10' />
    <vehicle id='N_S_52' type='standard_car' route='N_S' depart='221.0' departLane='random' departSpeed='10' />
    <vehicle id='W_E_53' type='standard_car' route='W_E' depart='228.0' departLane='random' departSpeed='10' />
    <vehicle id='W_E_54' type='standard_car' route='W_E' depart='229.0' departLane='random' departSpeed='10' />
    <vehicle id='W_S_55' type='standard_car' route='W_S' depart='229.0' departLane='random' departSpeed='10' />
    <vehicle id='W_E_56' type='standard_car' route='W_E' depart='234.0' departLane='random' departSpeed='10' />
    <vehicle id='W_S_57' type='standard_car' route='W_S' depart='235.0' departLane='random' departSpeed='10' />
    <vehicle id='N_S_58' type='standard_car' route='N_S' depart='241.0' departLane='random' departSpeed='10' />
    <vehicle id='N_W_59' type='standard_car' route='N_W' depart='245.0' departLane='random' departSpeed='10' />
    <vehicle id='S_N_60' type='standard_car' route='S_N' depart='246.0' departLane='random' departSpeed='10' />
    <vehicle id='N_S_61' type='standard_car' route='N_S' depart='246.0' departLane='random' departSpeed='10' />
    <vehicle id='S_N_62' type='standard_car' route='S_N' depart='250.0' departLane='random' departSpeed='10' />
    <vehicle id='W_S_63' type='standard_car' route='W_S' depart='250.0' departLane='random' departSpeed='10' />
    <vehicle id='E_N_64' type='standard_car' route='E_N' depart='251.0' departLane='random' departSpeed='10' />
    <vehicle id='N_W_65' type='standard_car' route='N_W' depart='256.0' departLane='random' departSpeed='10' />
    <vehicle id='S_N_66' type='standard_car' route='S_N' depart='256.0' departLane='random' departSpeed='10' />
    <vehicle id='E_W_67' type='standard_car' route='E_W' depart='257.0' departLane='random' departSpeed='10' />
    <vehicle id='N_W_68' type='standard_car' route='N_W' depart='258.0' departLane='random' departSpeed='10' />
    <vehicle id='N_S_69' type='standard_car' route='N_S' depart='259.0' departLane='random' departSpeed='10' />
    <vehicle id='W_E_70' type='standard_car' route='W_E' depart='259.0' departLane='random' departSpeed='10' />
    <vehicle id='E_N_71' type='standard_car' route='E_N' depart='261.0' departLane='random' departSpeed='10' />
    <vehicle id='W_E_72' type='standard_car' route='W_E' depart='261.0' departLane='random' departSpeed='10' />
    <vehicle id='E_N_73' type='standard_car' route='E_N' depart='262.0' departLane='random' departSpeed='10' />
    <vehicle id='N_S_74' type='standard_car' route='N_S' depart='263.0' departLane='random' departSpeed='10' />
    <vehicle id='N_W_75' type='standard_car' route='N_W' depart='263.0' departLane='random' departSpeed='10' />
    <vehicle id='E_N_76' type='standard_car' route='E_N' depart='264.0' departLane='random' departSpeed='10' />
    <vehicle id='S_N_77' type='standard_car' route='S_N' depart='265.0' departLane='random' departSpeed='10' />
    <vehicle id='S_N_78' type='standard_car' route='S_N' depart='268.0' departLane='random' departSpeed='10' />
    <vehicle id='S_N_79' type='standard_car' route='S_N' depart='268.0' departLane='random' departSpeed='10' />
    <vehicle id='S_E_80' type='standard_car' route='S_E' depart='276.0' departLane='random' departSpeed='10' />
    <vehicle id='E_W_81' type='standard_car' route='E_W' depart='277.0' departLane='random' departSpeed='10' />
    <vehicle id='N_S_82' type='standard_car' route='N_S' depart='277.0' departLane='random' departSpeed='10' />
    <vehicle id='E_W_83' type='standard_car' route='E_W' depart='279.0' departLane='random' departSpeed='10' />
    <vehicle id='W_E_84' type='standard_car' route='W_E' depart='279.0' departLane='random' departSpeed='10' />
    <vehicle id='N_S_85' type='standard_car' route='N_S' depart='280.0' departLane='random' departSpeed='10' />
    <vehicle id='N_W_86' type='standard_car' route='N_W' depart='281.0' departLane='random' departSpeed='10' />
    <vehicle id='N_W_87' type='standard_car' route='N_W' depart='282.0' departLane='random' departSpeed='10' />
    <vehicle id='S_E_88' type='standard_car' route='S_E' depart='284.0' departLane='random' departSpeed='10' />
    <vehicle id='S_N_89' type='standard_car' route='S_N' depart='285.0' departLane='random' departSpeed='10' />
    <vehicle id='S_E_90' type='standard_car' route='S_E' depart='285.0' departLane='random' departSpeed='10' />
    <vehicle id='S_N_91' type='standard_car' route='S_N' depart='287.0' departLane='random' departSpeed='10' />
    <vehicle id='S_N_92' type='standard_car' route='S_N' depart='287.0' departLane='random' departSpeed='10' />
    <vehicle id='W_S_93' type='standard_car' route='W_S' depart='289.0' departLane='random' departSpeed='10' />
    <vehicle id='S_N_94' type='standard_car' route='S_N' depart='291.0' departLane='random' departSpeed='10' />
    <vehicle id='E_N_95' type='standard_car' route='E_N' depart='292.0' departLane='random' departSpeed='10' />
    <vehicle id='S_N_96' type='standard_car' route='S_N' depart='299.0' departLane='random' departSpeed='10' />
    <vehicle id='N_W_97' type='standard_car' route='N_W' depart='300.0' departLane='random' departSpeed='10' />
    <vehicle id='N_W_98' type='standard_car' route='N_W' depart='300.0' departLane='random' departSpeed='10' />
    <vehicle id='W_S_99' type='standard_car' route='W_S' depart='300.0' departLane='random' departSpeed='10' />
    <vehicle id='E_N_100' type='standard_car' route='E_N' depart='301.0' departLane='random' departSpeed='10' />
    <vehicle id='E_W_101' type='standard_car' route='E_W' depart='301.0' departLane='random' departSpeed='10' />
    <vehicle id='S_E_102' type='standard_car' route='S_E' depart='302.0' departLane='random' departSpeed='10' />
    <vehicle id='W_E_103' type='standard_car' route='W_E' depart='303.0' departLane='random' departSpeed='10' />
    <vehicle id='S_N_104' type='standard_car' route='S_N' depart='303.0' departLane='random' departSpeed='10' />
    <vehicle id='W_S_105' type='standard_car' route='W_S' depart='305.0' departLane='random' departSpeed='10' />
    <vehicle id='S_N_106' type='standard_car' route='S_N' depart='306.0' departLane='random' departSpeed='10' />
    <vehicle id='E_W_107' type='standard_car' route='E_W' depart='306.0' departLane='random' departSpeed='10' />
    <vehicle id='W_E_108' type='standard_car' route='W_E' depart='309.0' departLane='random' departSpeed='10' />
    <vehicle id='N_S_109' type='standard_car' route='N_S' depart='311.0' departLane='random' departSpeed='10' />
    <vehicle id='S_N_110' type='standard_car' route='S_N' depart='311.0' departLane='random' departSpeed='10' />
    <vehicle id='E_W_111' type='standard_car' route='E_W' depart='313.0' departLane='random' departSpeed='10' />
    <vehicle id='S_N_112' type='standard_car' route='S_N' depart='314.0' departLane='random' departSpeed='10' />
    <vehicle id='N_S_113' type='standard_car' route='N_S' depart='315.0' departLane='random' departSpeed='10' />
    <vehicle id='E_W_114' type='standard_car' route='E_W' depart='316.0' departLane='random' departSpeed='10' />
    <vehicle id='N_S_115' type='standard_car' route='N_S' depart='316.0' departLane='random' departSpeed='10' />
    <vehicle id='S_N_116' type='standard_car' route='S_N' depart='318.0' departLane='random' departSpeed='10' />
    <vehicle id='S_N_117' type='standard_car' route='S_N' depart='318.0' departLane='random' departSpeed='10' />
    <vehicle id='W_E_118' type='standard_car' route='W_E' depart='319.0' departLane='random' departSpeed='10' />
    <vehicle id='W_E_119' type='standard_car' route='W_E' depart='320.0' departLane='random' departSpeed='10' />
    <vehicle id='N_S_120' type='standard_car' route='N_S' depart='321.0' departLane='random' departSpeed='10' />
    <vehicle id='N_W_121' type='standard_car' route='N_W' depart='324.0' departLane='random' departSpeed='10' />
    <vehicle id='E_N_122' type='standard_car' route='E_N' depart='324.0' departLane='random' departSpeed='10' />
    <vehicle id='W_E_123' type='standard_car' route='W_E' depart='329.0' departLane='random' departSpeed='10' />
    <vehicle id='E_W_124' type='standard_car' route='E_W' depart='329.0' departLane='random' departSpeed='10' />
    <vehicle id='S_N_125' type='standard_car' route='S_N' depart='331.0' departLane='random' departSpeed='10' />
    <vehicle id='N_S_126' type='standard_car' route='N_S' depart='332.0' departLane='random' departSpeed='10' />
    <vehicle id='N_S_127' type='standard_car' route='N_S' depart='333.0' departLane='random' departSpeed='10' />
    <vehicle id='N_S_128' type='standard_car' route='N_S' depart='333.0' departLane='random' departSpeed='10' />
    <vehicle id='S_E_129' type='standard_car' route='S_E' depart='334.0' departLane='random' departSpeed='10' />
    <vehicle id='W_S_130' type='standard_car' route='W_S' depart='338.0' departLane='random' departSpeed='10' />
    <vehicle id='W_S_131' type='standard_car' route='W_S' depart='341.0' departLane='random' departSpeed='10' />
    <vehicle id='N_S_132' type='standard_car' route='N_S' depart='342.0' departLane='random' departSpeed='10' />
    <vehicle id='S_N_133' type='standard_car' route='S_N' depart='344.0' departLane='random' departSpeed='10' />
    <vehicle id='N_W_134' type='standard_car' route='N_W' depart='347.0' departLane='random' departSpeed='10' />
    <vehicle id='N_W_135' type='standard_car' route='N_W' depart='347.0' departLane='random' departSpeed='10' />
    <vehicle id='N_S_136' type='standard_car' route='N_S' depart='347.0' departLane='random' departSpeed='10' />
    <vehicle id='E_W_137' type='standard_car' route='E_W' depart='348.0' departLane='random' departSpeed='10' />
    <vehicle id='W_S_138' type='standard_car' route='W_S' depart='349.0' departLane='random' departSpeed='10' />
    <vehicle id='N_S_139' type='standard_car' route='N_S' depart='350.0' departLane='random' departSpeed='10' />
    <vehicle id='N_S_140' type='standard_car' route='N_S' depart='351.0' departLane='random' departSpeed='10' />
    <vehicle id='W_E_141' type='standard_car' route='W_E' depart='351.0' departLane='random' departSpeed='10' />
    <vehicle id='W_S_142' type='standard_car' route='W_S' depart='352.0' departLane='random' departSpeed='10' />
    <vehicle id='W_E_143' type='standard_car' route='W_E' depart='353.0' departLane='random' departSpeed='10' />
    <vehicle id='W_S_144' type='standard_car' route='W_S' depart='353.0' departLane='random' departSpeed='10' />
    <vehicle id='N_S_145' type='standard_car' route='N_S' depart='354.0' departLane='random' departSpeed='10' />
    <vehicle id='E_N_146' type='standard_car' route='E_N' depart='355.0' departLane='random' departSpeed='10' />
    <vehicle id='N_W_147' type='standard_car' route='N_W' depart='359.0' departLane='random' departSpeed='10' />
    <vehicle id='W_S_148' type='standard_car' route='W_S' depart='359.0' departLane='random' departSpeed='10' />
    <vehicle id='W_E_149' type='standard_car' route='W_E' depart='361.0' departLane='random' departSpeed='10' />
    <vehicle id='W_S_150' type='standard_car' route='W_S' depart='362.0' departLane='random' departSpeed='10' />
    <vehicle id='S_N_151' type='standard_car' route='S_N' depart='365.0' departLane='random' departSpeed='10' />
    <vehicle id='N_S_152' type='standard_car' route='N_S' depart='365.0' departLane='random' departSpeed='10' />
    <vehicle id='S_N_153' type='standard_car' route='S_N' depart='365.0' departLane='random' departSpeed='10' />
    <vehicle id='W_S_154' type='standard_car' route='W_S' depart='367.0' departLane='random' departSpeed='10' />
    <vehicle id='N_S_155' type='standard_car' route='N_S' depart='368.0' departLane='random' departSpeed='10' />
    <vehicle id='N_W_156' type='standard_car' route='N_W' depart='369.0' departLane='random' departSpeed='10' />
    <vehicle id='W_S_157' type='standard_car' route='W_S' depart='369.0' departLane='random' departSpeed='10' />
    <vehicle id='N_S_158' type='standard_car' route='N_S' depart='370.0' departLane='random' departSpeed='10' />
    <vehicle id='S_N_159' type='standard_car' route='S_N' depart='375.0' departLane='random' departSpeed='10' />
    <vehicle id='N_S_160' type='standard_car' route='N_S' depart='376.0' departLane='random' departSpeed='10' />
    <vehicle id='W_E_161' type='standard_car' route='W_E' depart='377.0' departLane='random' departSpeed='10' />
    <vehicle id='S_N_162' type='standard_car' route='S_N' depart='381.0' departLane='random' departSpeed='10' />
    <vehicle id='S_E_163' type='standard_car' route='S_E' depart='383.0' departLane='random' departSpeed='10' />
    <vehicle id='N_W_164' type='standard_car' route='N_W' depart='384.0' departLane='random' departSpeed='10' />
    <vehicle id='N_S_165' type='standard_car' route='N_S' depart='387.0' departLane='random' departSpeed='10' />
    <vehicle id='W_E_166' type='standard_car' route='W_E' depart='388.0' departLane='random' departSpeed='10' />
    <vehicle id='W_S_167' type='standard_car' route='W_S' depart='388.0' departLane='random' departSpeed='10' />
    <vehicle id='N_W_168' type='standard_car' route='N_W' depart='388.0' departLane='random' departSpeed='10' />
    <vehicle id='E_N_169' type='standard_car' route='E_N' depart='388.0' departLane='random' departSpeed='10' />
    <vehicle id='N_S_170' type='standard_car' route='N_S' depart='389.0' departLane='random' departSpeed='10' />
    <vehicle id='S_E_171' type='standard_car' route='S_E' depart='389.0' departLane='random' departSpeed='10' />
    <vehicle id='W_E_172' type='standard_car' route='W_E' depart='389.0' departLane='random' departSpeed='10' />
    <vehicle id='S_E_173' type='standard_car' route='S_E' depart='390.0' departLane='random' departSpeed='10' />
    <vehicle id='S_N_174' type='standard_car' route='S_N' depart='391.0' departLane='random' departSpeed='10' />
    <vehicle id='N_S_175' type='standard_car' route='N_S' depart='391.0' departLane='random' departSpeed='10' />
    <vehicle id='E_W_176' type='standard_car' route='E_W' depart='392.0' departLane='random' departSpeed='10' />
    <vehicle id='W_S_177' type='standard_car' route='W_S' depart='392.0' departLane='random' departSpeed='10' />
    <vehicle id='W_E_178' type='standard_car' route='W_E' depart='393.0' departLane='random' departSpeed='10' />
    <vehicle id='S_N_179' type='standard_car' route='S_N' depart='394.0' departLane='random' departSpeed='10' />
    <vehicle id='N_S_180' type='standard_car' route='N_S' depart='394.0' departLane='random' departSpeed='10' />
    <vehicle id='W_E_181' type='standard_car' route='W_E' depart='397.0' departLane='random' departSpeed='10' />
    <vehicle id='S_E_182' type='standard_car' route='S_E' depart='397.0' departLane='random' departSpeed='10' />
    <vehicle id='E_W_183' type='standard_car' route='E_W' depart='398.0' departLane='random' departSpeed='10' />
    <vehicle id='N_S_184' type='standard_car' route='N_S' depart='398.0' departLane='random' departSpeed='10' />
    <vehicle id='E_N_185' type='standard_car' route='E_N' depart='399.0' departLane='random' departSpeed='10' />
    <vehicle id='W_E_186' type='standard_car' route='W_E' depart='399.0' departLane='random' departSpeed='10' />
    <vehicle id='W_E_187' type='standard_car' route='W_E' depart='400.0' departLane='random' departSpeed='10' />
    <vehicle id='W_S_188' type='standard_car' route='W_S' depart='402.0' departLane='random' departSpeed='10' />
    <vehicle id='E_W_189' type='standard_car' route='E_W' depart='402.0' departLane='random' departSpeed='10' />
    <vehicle id='S_N_190' type='standard_car' route='S_N' depart='402.0' departLane='random' departSpeed='10' />
    <vehicle id='S_N_191' type='standard_car' route='S_N' depart='403.0' departLane='random' departSpeed='10' />
    <vehicle id='N_W_192' type='standard_car' route='N_W' depart='403.0' departLane='random' departSpeed='10' />
    <vehicle id='S_E_193' type='standard_car' route='S_E' depart='406.0' departLane='random' departSpeed='10' />
    <vehicle id='S_E_194' type='standard_car' route='S_E' depart='409.0' departLane='random' departSpeed='10' />
    <vehicle id='W_E_195' type='standard_car' route='W_E' depart='411.0' departLane='random' departSpeed='10' />
    <vehicle id='S_N_196' type='standard_car' route='S_N' depart='413.0' departLane='random' departSpeed='10' />
    <vehicle id='N_S_197' type='standard_car' route='N_S' depart='413.0' departLane='random' departSpeed='10' />
    <vehicle id='N_W_198' type='standard_car' route='N_W' depart='413.0' departLane='random' departSpeed='10' />
    <vehicle id='E_W_199' type='standard_car' route='E_W' depart='414.0' departLane='random' departSpeed='10' />
    <vehicle id='S_E_200' type='standard_car' route='S_E' depart='417.0' departLane='random' departSpeed='10' />
    <vehicle id='S_N_201' type='standard_car' route='S_N' depart='418.0' departLane='random' departSpeed='10' />
    <vehicle id='W_E_202' type='standard_car' route='W_E' depart='418.0' departLane='random' departSpeed='10' />
    <vehicle id='W_E_203' type='standard_car' route='W_E' depart='419.0' departLane='random' departSpeed='10' />
    <vehicle id='S_E_204' type='standard_car' route='S_E' depart='419.0' departLane='random' departSpeed='10' />
    <vehicle id='W_E_205' type='standard_car' route='W_E' depart='421.0' departLane='random' departSpeed='10' />
    <vehicle id='W_E_206' type='standard_car' route='W_E' depart='422.0' departLane='random' departSpeed='10' />
    <vehicle id='S_E_207' type='standard_car' route='S_E' depart='423.0' departLane='random' departSpeed='10' />
    <vehicle id='N_S_208' type='standard_car' route='N_S' depart='424.0' departLane='random' departSpeed='10' />
    <vehicle id='W_E_209' type='standard_car' route='W_E' depart='425.0' departLane='random' departSpeed='10' />
    <vehicle id='S_E_210' type='standard_car' route='S_E' depart='426.0' departLane='random' departSpeed='10' />
    <vehicle id='E_W_211' type='standard_car' route='E_W' depart='427.0' departLane='random' departSpeed='10' />
    <vehicle id='N_S_212' type='standard_car' route='N_S' depart='428.0' departLane='random' departSpeed='10' />
    <vehicle id='E_N_213' type='standard_car' route='E_N' depart='428.0' departLane='random' departSpeed='10' />
    <vehicle id='N_S_214' type='standard_car' route='N_S' depart='431.0' departLane='random' departSpeed='10' />
    <vehicle id='N_S_215' type='standard_car' route='N_S' depart='431.0' departLane='random' departSpeed='10' />
    <vehicle id='S_N_216' type='standard_car' route='S_N' depart='431.0' departLane='random' departSpeed='10' />
    <vehicle id='W_E_217' type='standard_car' route='W_E' depart='432.0' departLane='random' departSpeed='10' />
    <vehicle id='S_E_218' type='standard_car' route='S_E' depart='432.0' departLane='random' departSpeed='10' />
    <vehicle id='S_E_219' type='standard_car' route='S_E' depart='433.0' departLane='random' departSpeed='10' />
    <vehicle id='S_N_220' type='standard_car' route='S_N' depart='433.0' departLane='random' departSpeed='10' />
    <vehicle id='N_W_221' type='standard_car' route='N_W' depart='433.0' departLane='random' departSpeed='10' />
    <vehicle id='N_S_222' type='standard_car' route='N_S' depart='434.0' departLane='random' departSpeed='10' />
    <vehicle id='W_S_223' type='standard_car' route='W_S' depart='434.0' departLane='random' departSpeed='10' />
    <vehicle id='E_W_224' type='standard_car' route='E_W' depart='434.0' departLane='random' departSpeed='10' />
    <vehicle id='W_E_225' type='standard_car' route='W_E' depart='435.0' departLane='random' departSpeed='10' />
    <vehicle id='N_S_226' type='standard_car' route='N_S' depart='435.0' departLane='random' departSpeed='10' />
    <vehicle id='S_E_227' type='standard_car' route='S_E' depart='436.0' departLane='random' departSpeed='10' />
    <vehicle id='N_S_228' type='standard_car' route='N_S' depart='436.0' departLane='random' departSpeed='10' />
    <vehicle id='E_W_229' type='standard_car' route='E_W' depart='437.0' departLane='random' departSpeed='10' />
    <vehicle id='W_E_230' type='standard_car' route='W_E' depart='437.0' departLane='random' departSpeed='10' />
    <vehicle id='S_N_231' type='standard_car' route='S_N' depart='438.0' departLane='random' departSpeed='10' />
    <vehicle id='E_W_232' type='standard_car' route='E_W' depart='438.0' departLane='random' departSpeed='10' />
    <vehicle id='W_E_233' type='standard_car' route='W_E' depart='438.0' departLane='random' departSpeed='10' />
    <vehicle id='E_N_234' type='standard_car' route='E_N' depart='439.0' departLane='random' departSpeed='10' />
    <vehicle id='N_S_235' type='standard_car' route='N_S' depart='440.0' departLane='random' departSpeed='10' />
    <vehicle id='S_N_236' type='standard_car' route='S_N' depart='440.0' departLane='random' departSpeed='10' />
    <vehicle id='S_N_237' type='standard_car' route='S_N' depart='441.0' departLane='random' departSpeed='10' />
    <vehicle id='N_W_238' type='standard_car' route='N_W' depart='441.0' departLane='random' departSpeed='10' />
    <vehicle id='E_W_239' type='standard_car' route='E_W' depart='443.0' departLane='random' departSpeed='10' />
    <vehicle id='S_E_240' type='standard_car' route='S_E' depart='444.0' departLane='random' departSpeed='10' />
    <vehicle id='N_W_241' type='standard_car' route='N_W' depart='446.0' departLane='random' departSpeed='10' />
    <vehicle id='N_W_242' type='standard_car' route='N_W' depart='449.0' departLane='random' departSpeed='10' />
    <vehicle id='N_S_243' type='standard_car' route='N_S' depart='450.0' departLane='random' departSpeed='10' />
    <vehicle id='E_W_244' type='standard_car' route='E_W' depart='451.0' departLane='random' departSpeed='10' />
    <vehicle id='N_S_245' type='standard_car' route='N_S' depart='451.0' departLane='random' departSpeed='10' />
    <vehicle id='W_E_246' type='standard_car' route='W_E' depart='451.0' departLane='random' departSpeed='10' />
    <vehicle id='E_N_247' type='standard_car' route='E_N' depart='452.0' departLane='random' departSpeed='10' />
    <vehicle id='N_S_248' type='standard_car' route='N_S' depart='454.0' departLane='random' departSpeed='10' />
    <vehicle id='N_S_249' type='standard_car' route='N_S' depart='456.0' departLane='random' departSpeed='10' />
    <vehicle id='N_S_250' type='standard_car' route='N_S' depart='457.0' departLane='random' departSpeed='10' />
    <vehicle id='S_N_251' type='standard_car' route='S_N' depart='464.0' departLane='random' departSpeed='10' />
    <vehicle id='N_S_252' type='standard_car' route='N_S' depart='466.0' departLane='random' departSpeed='10' />
    <vehicle id='S_E_253' type='standard_car' route='S_E' depart='466.0' departLane='random' departSpeed='10' />
    <vehicle id='E_N_254' type='standard_car' route='E_N' depart='466.0' departLane='random' departSpeed='10' />
    <vehicle id='E_W_255' type='standard_car' route='E_W' depart='467.0' departLane='random' departSpeed='10' />
    <vehicle id='N_S_256' type='standard_car' route='N_S' depart='474.0' departLane='random' departSpeed='10' />
    <vehicle id='E_W_257' type='standard_car' route='E_W' depart='474.0' departLane='random' departSpeed='10' />
    <vehicle id='E_W_258' type='standard_car' route='E_W' depart='474.0' departLane='random' departSpeed='10' />