<routes>
    <vType id="standard_car" length="5.0" maxSpeed="15" minGap="2.5" accel="2.0" decel="4.5" />
    <route id="N_S" edges="road_1_2_3 road_1_1_3"/>
    <route id="N_E" edges="road_1_2_3 road_1_1_0"/>
    <route id="N_W" edges="road_1_2_3 road_1_1_2"/>
    <route id="S_W" edges="road_1_0_1 road_1_1_2"/>
    <route id="S_E" edges="road_1_0_1 road_1_1_0"/>
    <route id="S_N" edges="road_1_0_1 road_1_1_1"/>

    <route id="W_E" edges="road_0_1_0 road_1_1_0"/>
    <route id="W_N" edges="road_0_1_0 road_1_1_1"/>
    <route id="W_S" edges="road_0_1_0 road_1_1_3"/>
    <route id="E_N" edges="road_2_1_2 road_1_1_1"/>
    <route id="E_S" edges="road_2_1_2 road_1_1_3"/>
    <route id="E_W" edges="road_2_1_2 road_1_1_2"/>
            
    <vehicle id='E_N_0' type='standard_car' route='E_N' depart='5.0' departLane='random' departSpeed='10' />
    <vehicle id='N_W_1' type='standard_car' route='N_W' depart='15.0' departLane='random' departSpeed='10' />
    <vehicle id='E_W_2' type='standard_car' route='E_W' depart='33.0' departLane='random' departSpeed='10' />
    <vehicle id='W_E_3' type='standard_car' route='W_E' depart='37.0' departLane='random' departSpeed='10' />
    <vehicle id='N_W_4' type='standard_car' route='N_W' depart='44.0' departLane='random' departSpeed='10' />
    <vehicle id='W_E_5' type='standard_car' route='W_E' depart='46.0' departLane='random' departSpeed='10' />
    <vehicle id='S_N_6' type='standard_car' route='S_N' depart='47.0' departLane='random' departSpeed='10' />
    <vehicle id='N_W_7' type='standard_car' route='N_W' depart='49.0' departLane='random' departSpeed='10' />
    <vehicle id='E_W_8' type='standard_car' route='E_W' depart='50.0' departLane='random' departSpeed='10' />
    <vehicle id='E_N_9' type='standard_car' route='E_N' depart='55.0' departLane='random' departSpeed='10' />
    <vehicle id='S_N_10' type='standard_car' route='S_N' depart='60.0' departLane='random' departSpeed='10' />
    <vehicle id='W_S_11' type='standard_car' route='W_S' depart='70.0' departLane='random' departSpeed='10' />
    <vehicle id='E_N_12' type='standard_car' route='E_N' depart='70.0' departLane='random' departSpeed='10' />
    <vehicle id='N_S_13' type='standard_car' route='N_S' depart='71.0' departLane='random' departSpeed='10' />
    <vehicle id='S_N_14' type='standard_car' route='S_N' depart='71.0' departLane='random' departSpeed='10' />
    <vehicle id='S_N_15' type='standard_car' route='S_N' depart='77.0' departLane='random' departSpeed='10' />
    <vehicle id='N_S_16' type='standard_car' route='N_S' depart='79.0' departLane='random' departSpeed='10' />
    <vehicle id='S_N_17' type='standard_car' route='S_N' depart='85.0' departLane='random' departSpeed='10' />
    <vehicle id='E_W_18' type='standard_car' route='E_W' depart='93.0' departLane='random' departSpeed='10' />
    <vehicle id='W_S_19' type='standard_car' route='W_S' depart='95.0' departLane='random' departSpeed='10' />
    <vehicle id='W_E_20' type='standard_car' route='W_E' depart='98.0' departLane='random' departSpeed='10' />
    <vehicle id='N_S_21' type='standard_car' route='N_S' depart='98.0' departLane='random' departSpeed='10' />
    <vehicle id='N_S_22' type='standard_car' route='N_S' depart='102.0' departLane='random' departSpeed='10' />
    <vehicle id='E_W_23' type='standard_car' route='E_W' depart='103.0' departLane='random' departSpeed='10' />
    <vehicle id='E_W_24' type='standard_car' route='E_W' depart='104.0' departLane='random' departSpeed='10' />
    <vehicle id='N_S_25' type='standard_car' route='N_S' depart='105.0' departLane='random' departSpeed='10' />
    <vehicle id='E_N_26' type='standard_car' route='E_N' depart='111.0' departLane='random' departSpeed='10' />
    <vehicle id='N_W_27' type='standard_car' route='N_W' depart='112.0' departLane='random' departSpeed='10' />
    <vehicle id='E_W_28' type='standard_car' route='E_W' depart='112.0' departLane='random' departSpeed='10' />
    <vehicle id='S_E_29' type='standard_car' route='S_E' depart='114.0' departLane='random' departSpeed='10' />
    <vehicle id='W_E_30' type='standard_car' route='W_E' depart='116.0' departLane='random' departSpeed='10' />
    <vehicle id='S_N_31' type='standard_car' route='S_N' depart='121.0' departLane='random' departSpeed='10' />
    <vehicle id='S_E_32' type='standard_car' route='S_E' depart='124.0' departLane='random' departSpeed='10' />
    <vehicle id='W_E_33' type='standard_car' route='W_E' depart='125.0' departLane='random' departSpeed='10' />
    <vehicle id='W_S_34' type='standard_car' route='W_S' depart='127.0' departLane='random' departSpeed='10' />
    <vehicle id='N_S_35' type='standard_car' route='N_S' depart='131.0' departLane='random' departSpeed='10' />
    <vehicle id='N_S_36' type='standard_car' route='N_S' depart='134.0' departLane='random' departSpeed='10' />
    <vehicle id='W_E_37' type='standard_car' route='W_E' depart='136.0' departLane='random' departSpeed='10' />
    <vehicle id='E_N_38' type='standard_car' route='E_N' depart='137.0' departLane='random' departSpeed='10' />
    <vehicle id='W_S_39' type='standard_car' route='W_S' depart='139.0' departLane='random' departSpeed='10' />
    <vehicle id='S_E_40' type='standard_car' route='S_E' depart='141.0' departLane='random' departSpeed='10' />
    <vehicle id='N_S_41' type='standard_car' route='N_S' depart='144.0' departLane='random' departSpeed='10' />
    <vehicle id='S_E_42' type='standard_car' route='S_E' depart='145.0' departLane='random' departSpeed='10' />
    <vehicle id='E_W_43' type='standard_car' route='E_W' depart='145.0' departLane='random' departSpeed='10' />
    <vehicle id='N_S_44' type='standard_car' route='N_S' depart='147.0' departLane='random' departSpeed='10' />
    <vehicle id='S_E_45' type='standard_car' route='S_E' depart='147.0' departLane='random' departSpeed='10' />
    <vehicle id='N_S_46' type='standard_car' route='N_S' depart='150.0' departLane='random' departSpeed='10' />
    <vehicle id='W_E_47' type='standard_car' route='W_E' depart='151.0' departLane='random' departSpeed='10' />
    <vehicle id='E_W_48' type='standard_car' route='E_W' depart='152.0' departLane='random' departSpeed='10' />
    <vehicle id='N_S_49' type='standard_car' route='N_S' depart='152.0' departLane='random' departSpeed='10' />
    <vehicle id='W_S_50' type='standard_car' route='W_S' depart='152.0' departLane='random' departSpeed='10' />
    <vehicle id='E_N_51' type='standard_car' route='E_N' depart='154.0' departLane='random' departSpeed='10' />
    <vehicle id='S_E_52' type='standard_car' route='S_E' depart='154.0' departLane='random' departSpeed='10' />
    <vehicle id='E_N_53' type='standard_car' route='E_N' depart='156.0' departLane='random' departSpeed='10' />
    <vehicle id='N_S_54' type='standard_car' route='N_S' depart='156.0' departLane='random' departSpeed='10' />
    <vehicle id='W_E_55' type='standard_car' route='W_E' depart='156.0' departLane='random' departSpeed='10' />
    <vehicle id='S_N_56' type='standard_car' route='S_N' depart='157.0' departLane='random' departSpeed='10' />
    <vehicle id='E_W_57' type='standard_car' route='E_W' depart='158.0' departLane='random' departSpeed='10' />
    <vehicle id='S_E_58' type='standard_car' route='S_E' depart='158.0' departLane='random' departSpeed='10' />
    <vehicle id='S_N_59' type='standard_car' route='S_N' depart='159.0' departLane='random' departSpeed='10' />
    <vehicle id='E_W_60' type='standard_car' route='E_W' depart='160.0' departLane='random' departSpeed='10' />
    <vehicle id='E_N_61' type='standard_car' route='E_N' depart='161.0' departLane='random' departSpeed='10' />
    <vehicle id='W_E_62' type='standard_car' route='W_E' depart='161.0' departLane='random' departSpeed='10' />
    <vehicle id='E_W_63' type='standard_car' route='E_W' depart='161.0' departLane='random' departSpeed='10' />
    <vehicle id='S_N_64' type='standard_car' route='S_N' depart='163.0' departLane='random' departSpeed='10' />
    <vehicle id='N_S_65' type='standard_car' route='N_S' depart='164.0' departLane='random' departSpeed='10' />
    <vehicle id='N_S_66' type='standard_car' route='N_S' depart='165.0' departLane='random' departSpeed='10' />
    <vehicle id='S_N_67' type='standard_car' route='S_N' depart='165.0' departLane='random' departSpeed='10' />
    <vehicle id='E_N_68' type='standard_car' route='E_N' depart='166.0' departLane='random' departSpeed='10' />
    <vehicle id='S_E_69' type='standard_car' route='S_E' depart='167.0' departLane='random' departSpeed='10' />
    <vehicle id='S_E_70' type='standard_car' route='S_E' depart='171.0' departLane='random' departSpeed='10' />
    <vehicle id='W_E_71' type='standard_car' route='W_E' depart='171.0' departLane='random' departSpeed='10' />
    <vehicle id='N_S_72' type='standard_car' route='N_S' depart='174.0' departLane='random' departSpeed='10' />
    <vehicle id='S_N_73' type='standard_car' route='S_N' depart='175.0' departLane='random' departSpeed='10' />
    <vehicle id='N_S_74' type='standard_car' route='N_S' depart='177.0' departLane='random' departSpeed='10' />
    <vehicle id='W_E_75' type='standard_car' route='W_E' depart='178.0' departLane='random' departSpeed='10' />
    <vehicle id='E_W_76' type='standard_car' route='E_W' depart='179.0' departLane='random' departSpeed='10' />
    <vehicle id='S_N_77' type='standard_car' route='S_N' depart='182.0' departLane='random' departSpeed='10' />
    <vehicle id='N_W_78' type='standard_car' route='N_W' depart='184.0' departLane='random' departSpeed='10' />
    <vehicle id='N_S_79' type='standard_car' route='N_S' depart='184.0' departLane='random' departSpeed='10' />
    <vehicle id='W_E_80' type='standard_car' route='W_E' depart='186.0' departLane='random' departSpeed='10' />
    <vehicle id='E_N_81' type='standard_car' route='E_N' depart='186.0' departLane='random' departSpeed='10' />
    <vehicle id='N_W_82' type='standard_car' route='N_W' depart='188.0' departLane='random' departSpeed='10' />
    <vehicle id='W_S_83' type='standard_car' route='W_S' depart='189.0' departLane='random' departSpeed='10' />
    <vehicle id='N_S_84' type='standard_car' route='N_S' depart='190.0' departLane='random' departSpeed='10' />
    <vehicle id='E_W_85' type='standard_car' route='E_W' depart='190.0' departLane='random' departSpeed='10' />
    <vehicle id='N_W_86' type='standard_car' route='N_W' depart='195.0' departLane='random' departSpeed='10' />
    <vehicle id='W_E_87' type='standard_car' route='W_E' depart='195.0' departLane='random' departSpeed='10' />
    <vehicle id='S_N_88' type='standard_car' route='S_N' depart='196.0' departLane='random' departSpeed='10' />
    <vehicle id='N_S_89' type='standard_car' route='N_S' depart='197.0' departLane='random' departSpeed='10' />
    <vehicle id='N_S_90' type='standard_car' route='N_S' depart='198.0' departLane='random' departSpeed='10' />
    <vehicle id='N_S_91' type='standard_car' route='N_S' depart='198.0' departLane='random' departSpeed='10' />
    <vehicle id='S_N_92' type='standard_car' route='S_N' depart='199.0' departLane='random' departSpeed='10' />
    <vehicle id='W_S_93' type='standard_car' route='W_S' depart='200.0' departLane='random' departSpeed='10' />
    <vehicle id='N_W_94' type='standard_car' route='N_W' depart='201.0' departLane='random' departSpeed='10' />
    <vehicle id='S_E_95' type='standard_car' route='S_E' depart='201.0' departLane='random' departSpeed='10' />
    <vehicle id='W_E_96' type='standard_car' route='W_E' depart='202.0' departLane='random' departSpeed='10' />
    <vehicle id='N_S_97' type='standard_car' route='N_S' depart='203.0' departLane='random' departSpeed='10' />
    <vehicle id='N_S_98' type='standard_car' route='N_S' depart='207.0' departLane='random' departSpeed='10' />
    <vehicle id='S_N_99' type='standard_car' route='S_N' depart='207.0' departLane='random' departSpeed='10' />
    <vehicle id='E_N_100' type='standard_car' route='E_N' depart='208.0' departLane='random' departSpeed='10' />
    <vehicle id='N_W_101' type='standard_car' route='N_W' depart='209.0' departLane='random' departSpeed='10' />
    <vehicle id='N_S_102' type='standard_car' route='N_S' depart='211.0' departLane='random' departSpeed='10' />
    <vehicle id='S_E_103' type='standard_car' route='S_E' depart='212.0' departLane='random' departSpeed='10' />
    <vehicle id='E_W_104' type='standard_car' route='E_W' depart='213.0' departLane='random' departSpeed='10' />
    <vehicle id='W_E_105' type='standard_car' route='W_E' depart='215.0' departLane='random' departSpeed='10' />
    <vehicle id='S_N_106' type='standard_car' route='S_N' depart='215.0' departLane='random' departSpeed='10' />
    <vehicle id='S_E_107' type='standard_car' route='S_E' depart='215.0' departLane='random' departSpeed='10' />
    <vehicle id='N_W_108' type='standard_car' route='N_W' depart='216.0' departLane='random' departSpeed='10' />
    <vehicle id='S_E_109' type='standard_car' route='S_E' depart='216.0' departLane='random' departSpeed='10' />
    <vehicle id='N_S_110' type='standard_car' route='N_S' depart='218.0' departLane='random' departSpeed='10' />
    <vehicle id='S_N_111' type='standard_car' route='S_N' depart='220.0' departLane='random' departSpeed='10' />
    <vehicle id='E_N_112' type='standard_car' route='E_N' depart='220.0' departLane='random' departSpeed='10' />
    <vehicle id='W_E_113' type='standard_car' route='W_E' depart='221.0' departLane='random' departSpeed='10' />
    <vehicle id='W_E_114' type='standard_car' route='W_E' depart='221.0' departLane='random' departSpeed='10' />
    <vehicle id='S_N_115' type='standard_car' route='S_N' depart='222.0' departLane='random' departSpeed='10' />
    <vehicle id='N_W_116' type='standard_car' route='N_W' depart='224.0' departLane='random' departSpeed='10' />
    <vehicle id='S_E_117' type='standard_car' route='S_E' depart='224.0' departLane='random' departSpeed='10' />
    <vehicle id='N_S_118' type='standard_car' route='N_S' depart='225.0' departLane='random' departSpeed='10' />
    <vehicle id='N_W_119' type='standard_car' route='N_W' depart='225.0' departLane='random' departSpeed='10' />
    <vehicle id='E_W_120' type='standard_car' route='E_W' depart='226.0' departLane='random' departSpeed='10' />
    <vehicle id='S_N_121' type='standard_car' route='S_N' depart='226.0' departLane='random' departSpeed='10' />
    <vehicle id='S_E_122' type='standard_car' route='S_E' depart='229.0' departLane='random' departSpeed='10' />
    <vehicle id='E_N_123' type='standard_car' route='E_N' depart='229.0' departLane='random' departSpeed='10' />
    <vehicle id='S_N_124' type='standard_car' route='S_N' depart='231.0' departLane='random' departSpeed='10' />
    <vehicle id='N_W_125' type='standard_car' route='N_W' depart='232.0' departLane='random' departSpeed='10' />
    <vehicle id='W_E_126' type='standard_car' route='W_E' depart='232.0' departLane='random' departSpeed='10' />
    <vehicle id='W_S_127' type='standard_car' route='W_S' depart='233.0' departLane='random' departSpeed='10' />
    <vehicle id='E_N_128' type='standard_car' route='E_N' depart='235.0' departLane='random' departSpeed='10' />
    <vehicle id='W_E_129' type='standard_car' route='W_E' depart='235.0' departLane='random' departSpeed='10' />
    <vehicle id='S_N_130' type='standard_car' route='S_N' depart='236.0' departLane='random' departSpeed='10' />
    <vehicle id='W_S_131' type='standard_car' route='W_S' depart='236.0' departLane='random' departSpeed='10' />
    <vehicle id='N_S_132' type='standard_car' route='N_S' depart='236.0' departLane='random' departSpeed='10' />
    <vehicle id='N_W_133' type='standard_car' route='N_W' depart='236.0' departLane='random' departSpeed='10' />
    <vehicle id='W_E_134' type='standard_car' route='W_E' depart='237.0' departLane='random' departSpeed='10' />
    <vehicle id='W_S_135' type='standard_car' route='W_S' depart='238.0' departLane='random' departSpeed='10' />
    <vehicle id='E_W_136' type='standard_car' route='E_W' depart='238.0' departLane='random' departSpeed='10' />
    <vehicle id='W_E_137' type='standard_car' route='W_E' depart='239.0' departLane='random' departSpeed='10' />
    <vehicle id='W_E_138' type='standard_car' route='W_E' depart='240.0' departLane='random' departSpeed='10' />
    <vehicle id='W_S_139' type='standard_car' route='W_S' depart='241.0' departLane='random' departSpeed='10' />
    <vehicle id='W_E_140' type='standard_car' route='W_E' depart='243.0' departLane='random' departSpeed='10' />
    <vehicle id='W_S_141' type='standard_car' route='W_S' depart='243.0' departLane='random' departSpeed='10' />
    <vehicle id='N_W_142' type='standard_car' route='N_W' depart='243.0' departLane='random' departSpeed='10' />
    <vehicle id='S_N_143' type='standard_car' route='S_N' depart='243.0' departLane='random' departSpeed='10' />
    <vehicle id='W_E_144' type='standard_car' route='W_E' depart='244.0' departLane='random' departSpeed='10' />
    <vehicle id='N_W_145' type='standard_car' route='N_W' depart='244.0' departLane='random' departSpeed='10' />
    <vehicle id='E_N_146' type='standard_car' route='E_N' depart='244.0' departLane='random' departSpeed='10' />
    <vehicle id='E_W_147' type='standard_car' route='E_W' depart='245.0' departLane='random' departSpeed='10' />
    <vehicle id='W_S_148' type='standard_car' route='W_S' depart='245.0' departLane='random' departSpeed='10' />
    <vehicle id='W_E_149' type='standard_car' route='W_E' depart='247.0' departLane='random' departSpeed='10' />
    <vehicle id='W_E_150' type='standard_car' route='W_E' depart='247.0' departLane='random' departSpeed='10' />
    <vehicle id='W_E_151' type='standard_car' route='W_E' depart='255.0' departLane='random' departSpeed='10' />
    <vehicle id='N_S_152' type='standard_car' route='N_S' depart='255.0' departLane='random' departSpeed='10' />
    <vehicle id='E_W_153' type='standard_car' route='E_W' depart='256.0' departLane='random' departSpeed='10' />
    <vehicle id='N_W_154' type='standard_car' route='N_W' depart='256.0' departLane='random' departSpeed='10' />
    <vehicle id='S_E_155' type='standard_car' route='S_E' depart='257.0' departLane='random' departSpeed='10' />
    <vehicle id='E_W_156' type='standard_car' route='E_W' depart='259.0' departLane='random' departSpeed='10' />
    <vehicle id='S_N_157' type='standard_car' route='S_N' depart='259.0' departLane='random' departSpeed='10' />
    <vehicle id='E_W_158' type='standard_car' route='E_W' depart='260.0' departLane='random' departSpeed='10' />
    <vehicle id='W_E_159' type='standard_car' route='W_E' depart='260.0' departLane='random' departSpeed='10' />
    <vehicle id='W_S_160' type='standard_car' route='W_S' depart='261.0' departLane='random' departSpeed='10' />
    <vehicle id='E_N_161' type='standard_car' route='E_N' depart='262.0' departLane='random' departSpeed='10' />
    <vehicle id='W_E_162' type='standard_car' route='W_E' depart='262.0' departLane='random' departSpeed='10' />
    <vehicle id='W_S_163' type='standard_car' route='W_S' depart='263.0' departLane='random' departSpeed='10' />
    <vehicle id='N_W_164' type='standard_car' route='N_W' depart='264.0' departLane='random' departSpeed='10' />
    <vehicle id='S_N_165' type='standard_car' route='S_N' depart='264.0' departLane='random' departSpeed='10' />
    <vehicle id='W_S_166' type='standard_car' route='W_S' depart='265.0' departLane='random' departSpeed='10' />
    <vehicle id='S_E_167' type='standard_car' route='S_E' depart='266.0' departLane='random' departSpeed='10' />
    <vehicle id='S_E_168' type='standard_car' route='S_E' depart='266.0' departLane='random' departSpeed='10' />
    <vehicle id='W_E_169' type='standard_car' route='W_E' depart='268.0' departLane='random' departSpeed='10' />
    <vehicle id='E_N_170' type='standard_car' route='E_N' depart='270.0' departLane='random' departSpeed='10' />
    <vehicle id='E_W_171' type='standard_car' route='E_W' depart='271.0' departLane='random' departSpeed='10' />
    <vehicle id='S_N_172' type='standard_car' route='S_N' depart='271.0' departLane='random' departSpeed='10' />
    <vehicle id='S_N_173' type='standard_car' route='S_N' depart='273.0' departLane='random' departSpeed='10' />
    <vehicle id='W_S_174' type='standard_car' route='W_S' depart='273.0' departLane='random' departSpeed='10' />
    <vehicle id='N_S_175' type='standard_car' route='N_S' depart='273.0' departLane='random' departSpeed='10' />
    <vehicle id='N_S_176' type='standard_car' route='N_S' depart='274.0' departLane='random' departSpeed='10' />
    <vehicle id='W_E_177' type='standard_car' route='W_E' depart='274.0' departLane='random' departSpeed='10' />
    <vehicle id='W_E_178' type='standard_car' route='W_E' depart='274.0' departLane='random' departSpeed='10' />
    <vehicle id='N_W_179' type='standard_car' route='N_W' depart='275.0' departLane='random' departSpeed='10' />
    <vehicle id='W_S_180' type='standard_car' route='W_S' depart='275.0' departLane='random' departSpeed='10' />
    <vehicle id='S_N_181' type='standard_car' route='S_N' depart='275.0' departLane='random' departSpeed='10' />
    <vehicle id='W_E_182' type='standard_car' route='W_E' depart='277.0' departLane='random' departSpeed='10' />
    <vehicle id='E_W_183' type='standard_car' route='E_W' depart='277.0' departLane='random' departSpeed='10' />
    <vehicle id='E_W_184' type='standard_car' route='E_W' depart='279.0' departLane='random' departSpeed='10' />
    <vehicle id='N_S_185' type='standard_car' route='N_S' depart='279.0' departLane='random' departSpeed='10' />
    <vehicle id='E_W_186' type='standard_car' route='E_W' depart='279.0' departLane='random' departSpeed='10' />
    <vehicle id='E_N_187' type='standard_car' route='E_N' depart='282.0' departLane='random' departSpeed='10' />
    <vehicle id='N_S_188' type='standard_car' route='N_S' depart='283.0' departLane='random' departSpeed='10' />
    <vehicle id='W_S_189' type='standard_car' route='W_S' depart='284.0' departLane='random' departSpeed='10' />
    <vehicle id='N_S_190' type='standard_car' route='N_S' depart='284.0' departLane='random' departSpeed='10' />
    <vehicle id='W_S_191' type='standard_car' route='W_S' depart='287.0' departLane='random' departSpeed='10' />
    <vehicle id='W_E_192' type='standard_car' route='W_E' depart='288.0' departLane='random' departSpeed='10' />
    <vehicle id='S_N_193' type='standard_car' route='S_N' depart='290.0' departLane='random' departSpeed='10' />
    <vehicle id='N_S_194' type='standard_car' route='N_S' depart='292.0' departLane='random' departSpeed='10' />
    <vehicle id='E_N_195' type='standard_car' route='E_N' depart='292.0' departLane='random' departSpeed='10' />
    <vehicle id='W_S_196' type='standard_car' route='W_S' depart='292.0' departLane='random' departSpeed='10' />
    <vehicle id='S_E_197' type='standard_car' route='S_E' depart='293.0' departLane='random' departSpeed='10' />
    <vehicle id='W_E_198' type='standard_car' route='W_E' depart='294.0' departLane='random' departSpeed='10' />
    <vehicle id='W_E_199' type='standard_car' route='W_E' depart='294.0' departLane='random' departSpeed='10' />
    <vehicle id='W_E_200' type='standard_car' route='W_E' depart='296.0' departLane='random' departSpeed='10' />
    <vehicle id='N_W_201' type='standard_car' route='N_W' depart='296.0' departLane='random' departSpeed='10' />
    <vehicle id='N_W_202' type='standard_car' route='N_W' depart='298.0' departLane='random' departSpeed='10' />
    <vehicle id='E_N_203' type='standard_car' route='E_N' depart='298.0' departLane='random' departSpeed='10' />
    <vehicle id='W_S_204' type='standard_car' route='W_S' depart='298.0' departLane='random' departSpeed='10' />
    <vehicle id='W_S_205' type='standard_car' route='W_S' depart='299.0' departLane='random' departSpeed='10' />
    <vehicle id='N_W_206' type='standard_car' route='N_W' depart='299.0' departLane='random' departSpeed='10' />
    <vehicle id='E_W_207' type='standard_car' route='E_W' depart='299.0' departLane='random' departSpeed='10' />
    <vehicle id='S_N_208' type='standard_car' route='S_N' depart='300.0' departLane='random' departSpeed='10' />
    <vehicle id='E_N_209' type='standard_car' route='E_N' depart='301.0' departLane='random' departSpeed='10' />
    <vehicle id='S_E_210' type='standard_car' route='S_E' depart='303.0' departLane='random' departSpeed='10' />
    <vehicle id='S_N_211' type='standard_car' route='S_N' depart='305.0' departLane='random' departSpeed='10' />
    <vehicle id='W_E_212' type='standard_car' route='W_E' depart='305.0' departLane='random' departSpeed='10' />
    <vehicle id='W_E_213' type='standard_car' route='W_E' depart='306.0' departLane='random' departSpeed='10' />
    <vehicle id='N_S_214' type='standard_car' route='N_S' depart='306.0' departLane='random' departSpeed='10' />
    <vehicle id='S_N_215' type='standard_car' route='S_N' depart='307.0' departLane='random' departSpeed='10' />
    <vehicle id='E_W_216' type='standard_car' route='E_W' depart='308.0' departLane='random' departSpeed='10' />
    <vehicle id='N_S_217' type='standard_car' route='N_S' depart='308.0' departLane='random' departSpeed='10' />
    <vehicle id='E_W_218' type='standard_car' route='E_W' depart='308.0' departLane='random' departSpeed='10' />
    <vehicle id='N_S_219' type='standard_car' route='N_S' depart='309.0' departLane='random' departSpeed='10' />
    <vehicle id='S_N_220' type='standard_car' route='S_N' depart='309.0' departLane='random' departSpeed='10' />
    <vehicle id='S_N_221' type='standard_car' route='S_N' depart='310.0' departLane='random' departSpeed='10' />
    <vehicle id='E_N_222' type='standard_car' route='E_N' depart='311.0' departLane='random' departSpeed='10' />
    <vehicle id='S_E_223' type='standard_car' route='S_E' depart='312.0' departLane='random' departSpeed='10' />
    <vehicle id='W_S_224' type='standard_car' route='W_S' depart='312.0' departLane='random' departSpeed='10' />
    <vehicle id='W_E_225' type='standard_car' route='W_E' depart='313.0' departLane='random' departSpeed='10' />
    <vehicle id='W_S_226' type='standard_car' route='W_S' depart='314.0' departLane='random' departSpeed='10' />
    <vehicle id='E_N_227' type='standard_car' route='E_N' depart='314.0' departLane='random' departSpeed='10' />
    <vehicle id='W_E_228' type='standard_car' route='W_E' depart='318.0' departLane='random' departSpeed='10' />
    <vehicle id='E_W_229' type='standard_car' route='E_W' depart='318.0' departLane='random' departSpeed='10' />
    <vehicle id='E_N_230' type='standard_car' route='E_N' depart='318.0' departLane='random' departSpeed='10' />
    <vehicle id='S_N_231' type='standard_car' route='S_N' depart='318.0' departLane='random' departSpeed='10' />
    <vehicle id='S_N_232' type='standard_car' route='S_N' depart='318.0' departLane='random' departSpeed='10' />
    <vehicle id='S_N_233' type='standard_car' route='S_N' depart='318.0' departLane='random' departSpeed='10' />
    <vehicle id='N_W_234' type='standard_car' route='N_W' depart='318.0' departLane='random' departSpeed='10' />
    <vehicle id='W_S_235' type='standard_car' route='W_S' depart='318.0' departLane='random' departSpeed='10' />
    <vehicle id='N_S_236' type='standard_car' route='N_S' depart='319.0' departLane='random' departSpeed='10' />
    <vehicle id='N_S_237' type='standard_car' route='N_S' depart='320.0' departLane='random' departSpeed='10' />
    <vehicle id='E_W_238' type='standard_car' route='E_W' depart='320.0' departLane='random' departSpeed='10' />
    <vehicle id='E_W_239' type='standard_car' route='E_W' depart='321.0' departLane='random' departSpeed='10' />
    <vehicle id='W_E_240' type='standard_car' route='W_E' depart='322.0' departLane='random' departSpeed='10' />
    <vehicle id='S_N_241' type='standard_car' route='S_N' depart='323.0' departLane='random' departSpeed='10' />
    <vehicle id='W_S_242' type='standard_car' route='W_S' depart='325.0' departLane='random' departSpeed='10' />
    <vehicle id='W_E_243' type='standard_car' route='W_E' depart='327.0' departLane='random' departSpeed='10' />
    <vehicle id='N_S_244' type='standard_car' route='N_S' depart='327.0' departLane='random' departSpeed='10' />
    <vehicle id='E_W_245' type='standard_car' route='E_W' depart='328.0' departLane='random' departSpeed='10' />
    <vehicle id='E_N_246' type='standard_car' route='E_N' depart='328.0' departLane='random' departSpeed='10' />
    <vehicle id='S_N_247' type='standard_car' route='S_N' depart='328.0' departLane='random' departSpeed='10' />
    <vehicle id='N_W_248' type='standard_car' route='N_W' depart='329.0' departLane='random' departSpeed='10' />
    <vehicle id='N_S_249' type='standard_car' route='N_S' depart='330.0' departLane='random' departSpeed='10' />
    <vehicle id='N_S_250' type='standard_car' route='N_S' depart='331.0' departLane='random' departSpeed='10' />
    <vehicle id='W_S_251' type='standard_car' route='W_S' depart='331.0' departLane='random' departSpeed='10' />
    <vehicle id='S_N_252' type='standard_car' route='S_N' depart='333.0' departLane='random' departSpeed='10' />
    <vehicle id='N_W_253' type='standard_car' route='N_W' depart='334.0' departLane='random' departSpeed='10' />
    <vehicle id='W_E_254' type='standard_car' route='W_E' depart='335.0' departLane='random' departSpeed='10' />
    <vehicle id='N_W_255' type='standard_car' route='N_W' depart='337.0' departLane='random' departSpeed='10' />
    <vehicle id='E_W_256' type='standard_car' route='E_W' depart='337.0' departLane='random' departSpeed='10' />
    <vehicle id='S_E_257' type='standard_car' route='S_E' depart='339.0' departLane='random' departSpeed='10' />
    <vehicle id='E_W_258' type='standard_car' route='E_W' depart='340.0' departLane='random' departSpeed='10' />
    <vehicle id='W_S_259' type='standard_car' route='W_S' depart='340.0' departLane='random' departSpeed='10' />