<routes>
    <vType id="standard_car" length="5.0" maxSpeed="15" minGap="2.5" accel="2.0" decel="4.5" />
    <route id="N_S" edges="road_1_2_3 road_1_1_3"/>
    <route id="N_E" edges="road_1_2_3 road_1_1_0"/>
    <route id="N_W" edges="road_1_2_3 road_1_1_2"/>
    <route id="S_W" edges="road_1_0_1 road_1_1_2"/>
    <route id="S_E" edges="road_1_0_1 road_1_1_0"/>
    <route id="S_N" edges="road_1_0_1 road_1_1_1"/>

    <route id="W_E" edges="road_0_1_0 road_1_1_0"/>
    <route id="W_N" edges="road_0_1_0 road_1_1_1"/>
    <route id="W_S" edges="road_0_1_0 road_1_1_3"/>
    <route id="E_N" edges="road_2_1_2 road_1_1_1"/>
    <route id="E_S" edges="road_2_1_2 road_1_1_3"/>
    <route id="E_W" edges="road_2_1_2 road_1_1_2"/>
            
    <vehicle id='S_N_0' type='standard_car' route='S_N' depart='17.0' departLane='random' departSpeed='10' />
    <vehicle id='E_W_1' type='standard_car' route='E_W' depart='27.0' departLane='random' departSpeed='10' />
    <vehicle id='S_E_2' type='standard_car' route='S_E' depart='42.0' departLane='random' departSpeed='10' />
    <vehicle id='E_W_3' type='standard_car' route='E_W' depart='52.0' departLane='random' departSpeed='10' />
    <vehicle id='S_N_4' type='standard_car' route='S_N' depart='59.0' departLane='random' departSpeed='10' />
    <vehicle id='E_W_5' type='standard_car' route='E_W' depart='64.0' departLane='random' departSpeed='10' />
    <vehicle id='W_E_6' type='standard_car' route='W_E' depart='69.0' departLane='random' departSpeed='10' />
    <vehicle id='S_E_7' type='standard_car' route='S_E' depart='72.0' departLane='random' departSpeed='10' />
    <vehicle id='W_S_8' type='standard_car' route='W_S' depart='74.0' departLane='random' departSpeed='10' />
    <vehicle id='E_N_9' type='standard_car' route='E_N' depart='74.0' departLane='random' departSpeed='10' />
    <vehicle id='E_W_10' type='standard_car' route='E_W' depart='74.0' departLane='random' departSpeed='10' />
    <vehicle id='S_E_11' type='standard_car' route='S_E' depart='75.0' departLane='random' departSpeed='10' />
    <vehicle id='W_E_12' type='standard_car' route='W_E' depart='75.0' departLane='random' departSpeed='10' />
    <vehicle id='W_E_13' type='standard_car' route='W_E' depart='77.0' departLane='random' departSpeed='10' />
    <vehicle id='E_N_14' type='standard_car' route='E_N' depart='85.0' departLane='random' departSpeed='10' />
    <vehicle id='N_S_15' type='standard_car' route='N_S' depart='87.0' departLane='random' departSpeed='10' />
    <vehicle id='W_E_16' type='standard_car' route='W_E' depart='89.0' departLane='random' departSpeed='10' />
    <vehicle id='N_S_17' type='standard_car' route='N_S' depart='93.0' departLane='random' departSpeed='10' />
    <vehicle id='E_W_18' type='standard_car' route='E_W' depart='97.0' departLane='random' departSpeed='10' />
    <vehicle id='N_S_19' type='standard_car' route='N_S' depart='103.0' departLane='random' departSpeed='10' />
    <vehicle id='E_W_20' type='standard_car' route='E_W' depart='105.0' departLane='random' departSpeed='10' />
    <vehicle id='S_E_21' type='standard_car' route='S_E' depart='107.0' departLane='random' departSpeed='10' />
    <vehicle id='S_N_22' type='standard_car' route='S_N' depart='111.0' departLane='random' departSpeed='10' />
    <vehicle id='S_N_23' type='standard_car' route='S_N' depart='114.0' departLane='random' departSpeed='10' />
    <vehicle id='S_N_24' type='standard_car' route='S_N' depart='114.0' departLane='random' departSpeed='10' />
    <vehicle id='S_E_25' type='standard_car' route='S_E' depart='116.0' departLane='random' departSpeed='10' />
    <vehicle id='N_W_26' type='standard_car' route='N_W' depart='118.0' departLane='random' departSpeed='10' />
    <vehicle id='W_E_27' type='standard_car' route='W_E' depart='121.0' departLane='random' departSpeed='10' />
    <vehicle id='W_S_28' type='standard_car' route='W_S' depart='123.0' departLane='random' departSpeed='10' />
    <vehicle id='S_N_29' type='standard_car' route='S_N' depart='124.0' departLane='random' departSpeed='10' />
    <vehicle id='W_E_30' type='standard_car' route='W_E' depart='125.0' departLane='random' departSpeed='10' />
    <vehicle id='W_S_31' type='standard_car' route='W_S' depart='135.0' departLane='random' departSpeed='10' />
    <vehicle id='E_W_32' type='standard_car' route='E_W' depart='136.0' departLane='random' departSpeed='10' />
    <vehicle id='S_N_33' type='standard_car' route='S_N' depart='136.0' departLane='random' departSpeed='10' />
    <vehicle id='S_N_34' type='standard_car' route='S_N' depart='146.0' departLane='random' departSpeed='10' />
    <vehicle id='N_W_35' type='standard_car' route='N_W' depart='146.0' departLane='random' departSpeed='10' />
    <vehicle id='E_W_36' type='standard_car' route='E_W' depart='146.0' departLane='random' departSpeed='10' />
    <vehicle id='E_N_37' type='standard_car' route='E_N' depart='147.0' departLane='random' departSpeed='10' />
    <vehicle id='W_S_38' type='standard_car' route='W_S' depart='148.0' departLane='random' departSpeed='10' />
    <vehicle id='S_E_39' type='standard_car' route='S_E' depart='151.0' departLane='random' departSpeed='10' />
    <vehicle id='E_W_40' type='standard_car' route='E_W' depart='156.0' departLane='random' departSpeed='10' />
    <vehicle id='S_N_41' type='standard_car' route='S_N' depart='163.0' departLane='random' departSpeed='10' />
    <vehicle id='E_W_42' type='standard_car' route='E_W' depart='168.0' departLane='random' departSpeed='10' />
    <vehicle id='E_W_43' type='standard_car' route='E_W' depart='169.0' departLane='random' departSpeed='10' />
    <vehicle id='N_S_44' type='standard_car' route='N_S' depart='172.0' departLane='random' departSpeed='10' />
    <vehicle id='E_W_45' type='standard_car' route='E_W' depart='172.0' departLane='random' departSpeed='10' />
    <vehicle id='W_E_46' type='standard_car' route='W_E' depart='173.0' departLane='random' departSpeed='10' />
    <vehicle id='E_W_47' type='standard_car' route='E_W' depart='174.0' departLane='random' departSpeed='10' />
    <vehicle id='W_S_48' type='standard_car' route='W_S' depart='175.0' departLane='random' departSpeed='10' />
    <vehicle id='N_S_49' type='standard_car' route='N_S' depart='175.0' departLane='random' departSpeed='10' />
    <vehicle id='N_W_50' type='standard_car' route='N_W' depart='176.0' departLane='random' departSpeed='10' />
    <vehicle id='N_S_51' type='standard_car' route='N_S' depart='178.0' departLane='random' departSpeed='10' />
    <vehicle id='S_N_52' type='standard_car' route='S_N' depart='178.0' departLane='random' departSpeed='10' />
    <vehicle id='S_N_53' type='standard_car' route='S_N' depart='179.0' departLane='random' departSpeed='10' />
    <vehicle id='S_N_54' type='standard_car' route='S_N' depart='179.0' departLane='random' departSpeed='10' />
    <vehicle id='S_E_55' type='standard_car' route='S_E' depart='186.0' departLane='random' departSpeed='10' />
    <vehicle id='S_N_56' type='standard_car' route='S_N' depart='186.0' departLane='random' departSpeed='10' />
    <vehicle id='S_N_57' type='standard_car' route='S_N' depart='186.0' departLane='random' departSpeed='10' />
    <vehicle id='N_W_58' type='standard_car' route='N_W' depart='187.0' departLane='random' departSpeed='10' />
    <vehicle id='N_W_59' type='standard_car' route='N_W' depart='196.0' departLane='random' departSpeed='10' />
    <vehicle id='S_N_60' type='standard_car' route='S_N' depart='199.0' departLane='random' departSpeed='10' />
    <vehicle id='N_W_61' type='standard_car' route='N_W' depart='201.0' departLane='random' departSpeed='10' />
    <vehicle id='E_N_62' type='standard_car' route='E_N' depart='203.0' departLane='random' departSpeed='10' />
    <vehicle id='S_N_63' type='standard_car' route='S_N' depart='204.0' departLane='random' departSpeed='10' />
    <vehicle id='W_E_64' type='standard_car' route='W_E' depart='205.0' departLane='random' departSpeed='10' />
    <vehicle id='S_N_65' type='standard_car' route='S_N' depart='205.0' departLane='random' departSpeed='10' />
    <vehicle id='E_W_66' type='standard_car' route='E_W' depart='206.0' departLane='random' departSpeed='10' />
    <vehicle id='N_W_67' type='standard_car' route='N_W' depart='209.0' departLane='random' departSpeed='10' />
    <vehicle id='N_W_68' type='standard_car' route='N_W' depart='211.0' departLane='random' departSpeed='10' />
    <vehicle id='W_E_69' type='standard_car' route='W_E' depart='212.0' departLane='random' departSpeed='10' />
    <vehicle id='N_W_70' type='standard_car' route='N_W' depart='215.0' departLane='random' departSpeed='10' />
    <vehicle id='W_E_71' type='standard_car' route='W_E' depart='215.0' departLane='random' departSpeed='10' />
    <vehicle id='N_S_72' type='standard_car' route='N_S' depart='216.0' departLane='random' departSpeed='10' />
    <vehicle id='E_W_73' type='standard_car' route='E_W' depart='218.0' departLane='random' departSpeed='10' />
    <vehicle id='N_S_74' type='standard_car' route='N_S' depart='219.0' departLane='random' departSpeed='10' />
    <vehicle id='S_E_75' type='standard_car' route='S_E' depart='223.0' departLane='random' departSpeed='10' />
    <vehicle id='N_S_76' type='standard_car' route='N_S' depart='229.0' departLane='random' departSpeed='10' />
    <vehicle id='W_S_77' type='standard_car' route='W_S' depart='229.0' departLane='random' departSpeed='10' />
    <vehicle id='W_E_78' type='standard_car' route='W_E' depart='231.0' departLane='random' departSpeed='10' />
    <vehicle id='S_E_79' type='standard_car' route='S_E' depart='234.0' departLane='random' departSpeed='10' />
    <vehicle id='E_N_80' type='standard_car' route='E_N' depart='234.0' departLane='random' departSpeed='10' />
    <vehicle id='W_E_81' type='standard_car' route='W_E' depart='235.0' departLane='random' departSpeed='10' />
    <vehicle id='W_E_82' type='standard_car' route='W_E' depart='244.0' departLane='random' departSpeed='10' />
    <vehicle id='N_S_83' type='standard_car' route='N_S' depart='245.0' departLane='random' departSpeed='10' />
    <vehicle id='W_S_84' type='standard_car' route='W_S' depart='247.0' departLane='random' departSpeed='10' />
    <vehicle id='N_S_85' type='standard_car' route='N_S' depart='249.0' departLane='random' departSpeed='10' />
    <vehicle id='S_N_86' type='standard_car' route='S_N' depart='253.0' departLane='random' departSpeed='10' />
    <vehicle id='S_N_87' type='standard_car' route='S_N' depart='253.0' departLane='random' departSpeed='10' />
    <vehicle id='E_W_88' type='standard_car' route='E_W' depart='255.0' departLane='random' departSpeed='10' />
    <vehicle id='N_S_89' type='standard_car' route='N_S' depart='256.0' departLane='random' departSpeed='10' />
    <vehicle id='N_S_90' type='standard_car' route='N_S' depart='257.0' departLane='random' departSpeed='10' />
    <vehicle id='S_N_91' type='standard_car' route='S_N' depart='261.0' departLane='random' departSpeed='10' />
    <vehicle id='N_S_92' type='standard_car' route='N_S' depart='264.0' departLane='random' departSpeed='10' />
    <vehicle id='E_W_93' type='standard_car' route='E_W' depart='265.0' departLane='random' departSpeed='10' />
    <vehicle id='E_W_94' type='standard_car' route='E_W' depart='265.0' departLane='random' departSpeed='10' />
    <vehicle id='E_N_95' type='standard_car' route='E_N' depart='266.0' departLane='random' departSpeed='10' />
    <vehicle id='S_N_96' type='standard_car' route='S_N' depart='269.0' departLane='random' departSpeed='10' />
    <vehicle id='N_S_97' type='standard_car' route='N_S' depart='270.0' departLane='random' departSpeed='10' />
    <vehicle id='N_W_98' type='standard_car' route='N_W' depart='270.0' departLane='random' departSpeed='10' />
    <vehicle id='S_N_99' type='standard_car' route='S_N' depart='271.0' departLane='random' departSpeed='10' />
    <vehicle id='W_S_100' type='standard_car' route='W_S' depart='271.0' departLane='random' departSpeed='10' />
    <vehicle id='N_S_101' type='standard_car' route='N_S' depart='274.0' departLane='random' departSpeed='10' />
    <vehicle id='W_E_102' type='standard_car' route='W_E' depart='276.0' departLane='random' departSpeed='10' />
    <vehicle id='N_W_103' type='standard_car' route='N_W' depart='277.0' departLane='random' departSpeed='10' />
    <vehicle id='W_S_104' type='standard_car' route='W_S' depart='277.0' departLane='random' departSpeed='10' />
    <vehicle id='W_S_105' type='standard_car' route='W_S' depart='278.0' departLane='random' departSpeed='10' />
    <vehicle id='W_E_106' type='standard_car' route='W_E' depart='279.0' departLane='random' departSpeed='10' />
    <vehicle id='S_N_107' type='standard_car' route='S_N' depart='281.0' departLane='random' departSpeed='10' />
    <vehicle id='E_W_108' type='standard_car' route='E_W' depart='282.0' departLane='random' departSpeed='10' />
    <vehicle id='N_S_109' type='standard_car' route='N_S' depart='283.0' departLane='random' departSpeed='10' />
    <vehicle id='W_E_110' type='standard_car' route='W_E' depart='283.0' departLane='random' departSpeed='10' />
    <vehicle id='S_E_111' type='standard_car' route='S_E' depart='290.0' departLane='random' departSpeed='10' />
    <vehicle id='N_S_112' type='standard_car' route='N_S' depart='290.0' departLane='random' departSpeed='10' />
    <vehicle id='W_S_113' type='standard_car' route='W_S' depart='293.0' departLane='random' departSpeed='10' />
    <vehicle id='N_S_114' type='standard_car' route='N_S' depart='294.0' departLane='random' departSpeed='10' />
    <vehicle id='S_N_115' type='standard_car' route='S_N' depart='294.0' departLane='random' departSpeed='10' />
    <vehicle id='S_N_116' type='standard_car' route='S_N' depart='295.0' departLane='random' departSpeed='10' />
    <vehicle id='S_N_117' type='standard_car' route='S_N' depart='299.0' departLane='random' departSpeed='10' />
    <vehicle id='E_W_118' type='standard_car' route='E_W' depart='300.0' departLane='random' departSpeed='10' />
    <vehicle id='W_E_119' type='standard_car' route='W_E' depart='300.0' departLane='random' departSpeed='10' />
    <vehicle id='W_E_120' type='standard_car' route='W_E' depart='300.0' departLane='random' departSpeed='10' />
    <vehicle id='W_E_121' type='standard_car' route='W_E' depart='306.0' departLane='random' departSpeed='10' />
    <vehicle id='E_N_122' type='standard_car' route='E_N' depart='307.0' departLane='random' departSpeed='10' />
    <vehicle id='E_W_123' type='standard_car' route='E_W' depart='308.0' departLane='random' departSpeed='10' />
    <vehicle id='S_E_124' type='standard_car' route='S_E' depart='309.0' departLane='random' departSpeed='10' />
    <vehicle id='N_W_125' type='standard_car' route='N_W' depart='311.0' departLane='random' departSpeed='10' />
    <vehicle id='E_W_126' type='standard_car' route='E_W' depart='311.0' departLane='random' departSpeed='10' />
    <vehicle id='S_E_127' type='standard_car' route='S_E' depart='312.0' departLane='random' departSpeed='10' />
    <vehicle id='S_N_128' type='standard_car' route='S_N' depart='317.0' departLane='random' departSpeed='10' />
    <vehicle id='S_E_129' type='standard_car' route='S_E' depart='319.0' departLane='random' departSpeed='10' />
    <vehicle id='W_E_130' type='standard_car' route='W_E' depart='320.0' departLane='random' departSpeed='10' />
    <vehicle id='W_S_131' type='standard_car' route='W_S' depart='321.0' departLane='random' departSpeed='10' />
    <vehicle id='E_W_132' type='standard_car' route='E_W' depart='322.0' departLane='random' departSpeed='10' />
    <vehicle id='N_W_133' type='standard_car' route='N_W' depart='322.0' departLane='random' departSpeed='10' />
    <vehicle id='S_E_134' type='standard_car' route='S_E' depart='323.0' departLane='random' departSpeed='10' />
    <vehicle id='W_E_135' type='standard_car' route='W_E' depart='323.0' departLane='random' departSpeed='10' />
    <vehicle id='N_S_136' type='standard_car' route='N_S' depart='326.0' departLane='random' departSpeed='10' />
    <vehicle id='W_E_137' type='standard_car' route='W_E' depart='327.0' departLane='random' departSpeed='10' />
    <vehicle id='W_S_138' type='standard_car' route='W_S' depart='327.0' departLane='random' departSpeed='10' />
    <vehicle id='E_N_139' type='standard_car' route='E_N' depart='328.0' departLane='random' departSpeed='10' />
    <vehicle id='S_E_140' type='standard_car' route='S_E' depart='328.0' departLane='random' departSpeed='10' />
    <vehicle id='E_W_141' type='standard_car' route='E_W' depart='328.0' departLane='random' departSpeed='10' />
    <vehicle id='E_N_142' type='standard_car' route='E_N' depart='329.0' departLane='random' departSpeed='10' />
    <vehicle id='N_S_143' type='standard_car' route='N_S' depart='330.0' departLane='random' departSpeed='10' />
    <vehicle id='N_S_144' type='standard_car' route='N_S' depart='330.0' departLane='random' departSpeed='10' />
    <vehicle id='N_W_145' type='standard_car' route='N_W' depart='331.0' departLane='random' departSpeed='10' />
    <vehicle id='S_N_146' type='standard_car' route='S_N' depart='331.0' departLane='random' departSpeed='10' />
    <vehicle id='S_N_147' type='standard_car' route='S_N' depart='332.0' departLane='random' departSpeed='10' />
    <vehicle id='S_E_148' type='standard_car' route='S_E' depart='332.0' departLane='random' departSpeed='10' />
    <vehicle id='E_N_149' type='standard_car' route='E_N' depart='332.0' departLane='random' departSpeed='10' />
    <vehicle id='W_S_150' type='standard_car' route='W_S' depart='335.0' departLane='random' departSpeed='10' />
    <vehicle id='E_N_151' type='standard_car' route='E_N' depart='335.0' departLane='random' departSpeed='10' />
    <vehicle id='S_E_152' type='standard_car' route='S_E' depart='335.0' departLane='random' departSpeed='10' />
    <vehicle id='S_E_153' type='standard_car' route='S_E' depart='338.0' departLane='random' departSpeed='10' />
    <vehicle id='W_E_154' type='standard_car' route='W_E' depart='338.0' departLane='random' departSpeed='10' />
    <vehicle id='N_S_155' type='standard_car' route='N_S' depart='339.0' departLane='random' departSpeed='10' />
    <vehicle id='E_N_156' type='standard_car' route='E_N' depart='339.0' departLane='random' departSpeed='10' />
    <vehicle id='E_N_157' type='standard_car' route='E_N' depart='339.0' departLane='random' departSpeed='10' />
    <vehicle id='S_N_158' type='standard_car' route='S_N' depart='341.0' departLane='random' departSpeed='10' />
    <vehicle id='N_S_159' type='standard_car' route='N_S' depart='342.0' departLane='random' departSpeed='10' />
    <vehicle id='N_W_160' type='standard_car' route='N_W' depart='344.0' departLane='random' departSpeed='10' />
    <vehicle id='N_W_161' type='standard_car' route='N_W' depart='344.0' departLane='random' departSpeed='10' />
    <vehicle id='W_E_162' type='standard_car' route='W_E' depart='345.0' departLane='random' departSpeed='10' />
    <vehicle id='W_E_163' type='standard_car' route='W_E' depart='347.0' departLane='random' departSpeed='10' />
    <vehicle id='E_N_164' type='standard_car' route='E_N' depart='348.0' departLane='random' departSpeed='10' />
    <vehicle id='N_W_165' type='standard_car' route='N_W' depart='348.0' departLane='random' departSpeed='10' />
    <vehicle id='N_S_166' type='standard_car' route='N_S' depart='348.0' departLane='random' departSpeed='10' />
    <vehicle id='N_S_167' type='standard_car' route='N_S' depart='348.0' departLane='random' departSpeed='10' />
    <vehicle id='W_E_168' type='standard_car' route='W_E' depart='350.0' departLane='random' departSpeed='10' />
    <vehicle id='N_W_169' type='standard_car' route='N_W' depart='350.0' departLane='random' departSpeed='10' />
    <vehicle id='W_S_170' type='standard_car' route='W_S' depart='351.0' departLane='random' departSpeed='10' />
    <vehicle id='N_W_171' type='standard_car' route='N_W' depart='354.0' departLane='random' departSpeed='10' />
    <vehicle id='W_E_172' type='standard_car' route='W_E' depart='356.0' departLane='random' departSpeed='10' />
    <vehicle id='N_S_173' type='standard_car' route='N_S' depart='359.0' departLane='random' departSpeed='10' />
    <vehicle id='W_S_174' type='standard_car' route='W_S' depart='359.0' departLane='random' departSpeed='10' />
    <vehicle id='S_N_175' type='standard_car' route='S_N' depart='361.0' departLane='random' departSpeed='10' />
    <vehicle id='W_S_176' type='standard_car' route='W_S' depart='363.0' departLane='random' departSpeed='10' />
    <vehicle id='S_N_177' type='standard_car' route='S_N' depart='368.0' departLane='random' departSpeed='10' />
    <vehicle id='E_N_178' type='standard_car' route='E_N' depart='370.0' departLane='random' departSpeed='10' />
    <vehicle id='W_E_179' type='standard_car' route='W_E' depart='370.0' departLane='random' departSpeed='10' />
    <vehicle id='S_E_180' type='standard_car' route='S_E' depart='371.0' departLane='random' departSpeed='10' />
    <vehicle id='W_E_181' type='standard_car' route='W_E' depart='372.0' departLane='random' departSpeed='10' />
    <vehicle id='E_W_182' type='standard_car' route='E_W' depart='373.0' departLane='random' departSpeed='10' />
    <vehicle id='N_S_183' type='standard_car' route='N_S' depart='373.0' departLane='random' departSpeed='10' />
    <vehicle id='S_N_184' type='standard_car' route='S_N' depart='373.0' departLane='random' departSpeed='10' />
    <vehicle id='E_N_185' type='standard_car' route='E_N' depart='374.0' departLane='random' departSpeed='10' />
    <vehicle id='S_E_186' type='standard_car' route='S_E' depart='374.0' departLane='random' departSpeed='10' />
    <vehicle id='S_N_187' type='standard_car' route='S_N' depart='376.0' departLane='random' departSpeed='10' />
    <vehicle id='W_E_188' type='standard_car' route='W_E' depart='377.0' departLane='random' departSpeed='10' />
    <vehicle id='W_S_189' type='standard_car' route='W_S' depart='378.0' departLane='random' departSpeed='10' />
    <vehicle id='W_E_190' type='standard_car' route='W_E' depart='378.0' departLane='random' departSpeed='10' />
    <vehicle id='N_S_191' type='standard_car' route='N_S' depart='379.0' departLane='random' departSpeed='10' />
    <vehicle id='N_S_192' type='standard_car' route='N_S' depart='380.0' departLane='random' departSpeed='10' />
    <vehicle id='W_E_193' type='standard_car' route='W_E' depart='382.0' departLane='random' departSpeed='10' />
    <vehicle id='N_W_194' type='standard_car' route='N_W' depart='382.0' departLane='random' departSpeed='10' />
    <vehicle id='S_N_195' type='standard_car' route='S_N' depart='383.0' departLane='random' departSpeed='10' />
    <vehicle id='W_E_196' type='standard_car' route='W_E' depart='384.0' departLane='random' departSpeed='10' />
    <vehicle id='N_W_197' type='standard_car' route='N_W' depart='386.0' departLane='random' departSpeed='10' />
    <vehicle id='E_N_198' type='standard_car' route='E_N' depart='387.0' departLane='random' departSpeed='10' />
    <vehicle id='E_W_199' type='standard_car' route='E_W' depart='388.0' departLane='random' departSpeed='10' />
    <vehicle id='W_E_200' type='standard_car' route='W_E' depart='389.0' departLane='random' departSpeed='10' />
    <vehicle id='S_E_201' type='standard_car' route='S_E' depart='390.0' departLane='random' departSpeed='10' />
    <vehicle id='N_S_202' type='standard_car' route='N_S' depart='391.0' departLane='random' departSpeed='10' />
    <vehicle id='S_N_203' type='standard_car' route='S_N' depart='393.0' departLane='random' departSpeed='10' />
    <vehicle id='N_W_204' type='standard_car' route='N_W' depart='394.0' departLane='random' departSpeed='10' />
    <vehicle id='N_S_205' type='standard_car' route='N_S' depart='400.0' departLane='random' departSpeed='10' />
    <vehicle id='S_N_206' type='standard_car' route='S_N' depart='403.0' departLane='random' departSpeed='10' />
    <vehicle id='E_W_207' type='standard_car' route='E_W' depart='403.0' departLane='random' departSpeed='10' />
    <vehicle id='E_N_208' type='standard_car' route='E_N' depart='404.0' departLane='random' departSpeed='10' />
    <vehicle id='S_N_209' type='standard_car' route='S_N' depart='404.0' departLane='random' departSpeed='10' />
    <vehicle id='N_W_210' type='standard_car' route='N_W' depart='405.0' departLane='random' departSpeed='10' />
    <vehicle id='N_S_211' type='standard_car' route='N_S' depart='407.0' departLane='random' departSpeed='10' />
    <vehicle id='W_E_212' type='standard_car' route='W_E' depart='407.0' departLane='random' departSpeed='10' />
    <vehicle id='S_E_213' type='standard_car' route='S_E' depart='409.0' departLane='random' departSpeed='10' />
    <vehicle id='N_S_214' type='standard_car' route='N_S' depart='411.0' departLane='random' departSpeed='10' />
    <vehicle id='W_E_215' type='standard_car' route='W_E' depart='411.0' departLane='random' departSpeed='10' />
    <vehicle id='W_E_216' type='standard_car' route='W_E' depart='414.0' departLane='random' departSpeed='10' />
    <vehicle id='N_S_217' type='standard_car' route='N_S' depart='415.0' departLane='random' departSpeed='10' />
    <vehicle id='W_S_218' type='standard_car' route='W_S' depart='417.0' departLane='random' departSpeed='10' />
    <vehicle id='W_E_219' type='standard_car' route='W_E' depart='418.0' departLane='random' departSpeed='10' />
    <vehicle id='N_S_220' type='standard_car' route='N_S' depart='420.0' departLane='random' departSpeed='10' />
    <vehicle id='N_S_221' type='standard_car' route='N_S' depart='420.0' departLane='random' departSpeed='10' />
    <vehicle id='N_W_222' type='standard_car' route='N_W' depart='421.0' departLane='random' departSpeed='10' />
    <vehicle id='S_N_223' type='standard_car' route='S_N' depart='422.0' departLane='random' departSpeed='10' />
    <vehicle id='E_N_224' type='standard_car' route='E_N' depart='423.0' departLane='random' departSpeed='10' />
    <vehicle id='N_S_225' type='standard_car' route='N_S' depart='424.0' departLane='random' departSpeed='10' />
    <vehicle id='S_E_226' type='standard_car' route='S_E' depart='425.0' departLane='random' departSpeed='10' />
    <vehicle id='S_N_227' type='standard_car' route='S_N' depart='425.0' departLane='random' departSpeed='10' />
    <vehicle id='W_S_228' type='standard_car' route='W_S' depart='426.0' departLane='random' departSpeed='10' />
    <vehicle id='W_S_229' type='standard_car' route='W_S' depart='428.0' departLane='random' departSpeed='10' />
    <vehicle id='W_E_230' type='standard_car' route='W_E' depart='429.0' departLane='random' departSpeed='10' />
    <vehicle id='N_S_231' type='standard_car' route='N_S' depart='431.0' departLane='random' departSpeed='10' />
    <vehicle id='N_W_232' type='standard_car' route='N_W' depart='432.0' departLane='random' departSpeed='10' />
    <vehicle id='W_E_233' type='standard_car' route='W_E' depart='432.0' departLane='random' departSpeed='10' />
    <vehicle id='E_N_234' type='standard_car' route='E_N' depart='433.0' departLane='random' departSpeed='10' />
    <vehicle id='N_W_235' type='standard_car' route='N_W' depart='435.0' departLane='random' departSpeed='10' />
    <vehicle id='N_W_236' type='standard_car' route='N_W' depart='436.0' departLane='random' departSpeed='10' />
    <vehicle id='W_E_237' type='standard_car' route='W_E' depart='438.0' departLane='random' departSpeed='10' />
    <vehicle id='W_E_238' type='standard_car' route='W_E' depart='440.0' departLane='random' departSpeed='10' />
    <vehicle id='W_E_239' type='standard_car' route='W_E' depart='440.0' departLane='random' departSpeed='10' />
    <vehicle id='S_N_240' type='standard_car' route='S_N' depart='442.0' departLane='random' departSpeed='10' />
    <vehicle id='E_W_241' type='standard_car' route='E_W' depart='442.0' departLane='random' departSpeed='10' />
    <vehicle id='E_N_242' type='standard_car' route='E_N' depart='443.0' departLane='random' departSpeed='10' />
    <vehicle id='N_W_243' type='standard_car' route='N_W' depart='445.0' departLane='random' departSpeed='10' />
    <vehicle id='S_N_244' type='standard_car' route='S_N' depart='445.0' departLane='random' departSpeed='10' />
    <vehicle id='N_S_245' type='standard_car' route='N_S' depart='446.0' departLane='random' departSpeed='10' />
    <vehicle id='W_E_246' type='standard_car' route='W_E' depart='449.0' departLane='random' departSpeed='10' />
    <vehicle id='W_E_247' type='standard_car' route='W_E' depart='452.0' departLane='random' departSpeed='10' />
    <vehicle id='W_S_248' type='standard_car' route='W_S' depart='453.0' departLane='random' departSpeed='10' />
    <vehicle id='E_N_249' type='standard_car' route='E_N' depart='454.0' departLane='random' departSpeed='10' />
    <vehicle id='N_W_250' type='standard_car' route='N_W' depart='455.0' departLane='random' departSpeed='10' />
    <vehicle id='E_W_251' type='standard_car' route='E_W' depart='455.0' departLane='random' departSpeed='10' />
    <vehicle id='N_S_252' type='standard_car' route='N_S' depart='455.0' departLane='random' departSpeed='10' />
    <vehicle id='S_N_253' type='standard_car' route='S_N' depart='455.0' departLane='random' departSpeed='10' />
    <vehicle id='E_N_254' type='standard_car' route='E_N' depart='457.0' departLane='random' departSpeed='10' />
    <vehicle id='N_S_255' type='standard_car' route='N_S' depart='457.0' departLane='random' departSpeed='10' />
    <vehicle id='S_E_256' type='standard_car' route='S_E' depart='459.0' departLane='random' departSpeed='10' />
    <vehicle id='N_S_257' type='standard_car' route='N_S' depart='460.0' departLane='random' departSpeed='10' />
    <vehicle id='N_S_258' type='standard_car' route='N_S' depart='460.0' departLane='random' departSpeed='10' />
    <vehicle id='N_S_259' type='standard_car' route='N_S' depart='461.0' departLane='random' departSpeed='10' />