<routes>
    <vType id="standard_car" length="5.0" maxSpeed="15" minGap="2.5" accel="2.0" decel="4.5" />
    <route id="N_S" edges="road_1_2_3 road_1_1_3"/>
    <route id="N_E" edges="road_1_2_3 road_1_1_0"/>
    <route id="N_W" edges="road_1_2_3 road_1_1_2"/>
    <route id="S_W" edges="road_1_0_1 road_1_1_2"/>
    <route id="S_E" edges="road_1_0_1 road_1_1_0"/>
    <route id="S_N" edges="road_1_0_1 road_1_1_1"/>

    <route id="W_E" edges="road_0_1_0 road_1_1_0"/>
    <route id="W_N" edges="road_0_1_0 road_1_1_1"/>
    <route id="W_S" edges="road_0_1_0 road_1_1_3"/>
    <route id="E_N" edges="road_2_1_2 road_1_1_1"/>
    <route id="E_S" edges="road_2_1_2 road_1_1_3"/>
    <route id="E_W" edges="road_2_1_2 road_1_1_2"/>
            
    <vehicle id='N_S_0' type='standard_car' route='N_S' depart='15.0' departLane='random' departSpeed='10' />
    <vehicle id='W_S_1' type='standard_car' route='W_S' depart='25.0' departLane='random' departSpeed='10' />
    <vehicle id='W_E_2' type='standard_car' route='W_E' depart='38.0' departLane='random' departSpeed='10' />
    <vehicle id='N_S_3' type='standard_car' route='N_S' depart='45.0' departLane='random' departSpeed='10' />
    <vehicle id='S_N_4' type='standard_car' route='S_N' depart='45.0' departLane='random' departSpeed='10' />
    <vehicle id='E_N_5' type='standard_car' route='E_N' depart='48.0' departLane='random' departSpeed='10' />
    <vehicle id='W_E_6' type='standard_car' route='W_E' depart='50.0' departLane='random' departSpeed='10' />
    <vehicle id='N_S_7' type='standard_car' route='N_S' depart='55.0' departLane='random' departSpeed='10' />
    <vehicle id='W_E_8' type='standard_car' route='W_E' depart='58.0' departLane='random' departSpeed='10' />
    <vehicle id='W_E_9' type='standard_car' route='W_E' depart='58.0' departLane='random' departSpeed='10' />
    <vehicle id='E_W_10' type='standard_car' route='E_W' depart='69.0' departLane='random' departSpeed='10' />
    <vehicle id='N_S_11' type='standard_car' route='N_S' depart='72.0' departLane='random' departSpeed='10' />
    <vehicle id='N_S_12' type='standard_car' route='N_S' depart='73.0' departLane='random' departSpeed='10' />
    <vehicle id='E_N_13' type='standard_car' route='E_N' depart='79.0' departLane='random' departSpeed='10' />
    <vehicle id='N_W_14' type='standard_car' route='N_W' depart='86.0' departLane='random' departSpeed='10' />
    <vehicle id='W_E_15' type='standard_car' route='W_E' depart='90.0' departLane='random' departSpeed='10' />
    <vehicle id='S_N_16' type='standard_car' route='S_N' depart='90.0' departLane='random' departSpeed='10' />
    <vehicle id='W_E_17' type='standard_car' route='W_E' depart='91.0' departLane='random' departSpeed='10' />
    <vehicle id='N_S_18' type='standard_car' route='N_S' depart='91.0' departLane='random' departSpeed='10' />
    <vehicle id='E_W_19' type='standard_car' route='E_W' depart='92.0' departLane='random' departSpeed='10' />
    <vehicle id='W_E_20' type='standard_car' route='W_E' depart='96.0' departLane='random' departSpeed='10' />
    <vehicle id='E_N_21' type='standard_car' route='E_N' depart='97.0' departLane='random' departSpeed='10' />
    <vehicle id='W_S_22' type='standard_car' route='W_S' depart='98.0' departLane='random' departSpeed='10' />
    <vehicle id='N_S_23' type='standard_car' route='N_S' depart='99.0' departLane='random' departSpeed='10' />
    <vehicle id='W_S_24' type='standard_car' route='W_S' depart='99.0' departLane='random' departSpeed='10' />
    <vehicle id='W_E_25' type='standard_car' route='W_E' depart='103.0' departLane='random' departSpeed='10' />
    <vehicle id='W_E_26' type='standard_car' route='W_E' depart='103.0' departLane='random' departSpeed='10' />
    <vehicle id='N_S_27' type='standard_car' route='N_S' depart='107.0' departLane='random' departSpeed='10' />
    <vehicle id='N_S_28' type='standard_car' route='N_S' depart='108.0' departLane='random' departSpeed='10' />
    <vehicle id='S_E_29' type='standard_car' route='S_E' depart='116.0' departLane='random' departSpeed='10' />
    <vehicle id='W_E_30' type='standard_car' route='W_E' depart='119.0' departLane='random' departSpeed='10' />
    <vehicle id='S_E_31' type='standard_car' route='S_E' depart='123.0' departLane='random' departSpeed='10' />
    <vehicle id='W_S_32' type='standard_car' route='W_S' depart='126.0' departLane='random' departSpeed='10' />
    <vehicle id='E_N_33' type='standard_car' route='E_N' depart='129.0' departLane='random' departSpeed='10' />
    <vehicle id='N_S_34' type='standard_car' route='N_S' depart='130.0' departLane='random' departSpeed='10' />
    <vehicle id='E_N_35' type='standard_car' route='E_N' depart='132.0' departLane='random' departSpeed='10' />
    <vehicle id='W_E_36' type='standard_car' route='W_E' depart='133.0' departLane='random' departSpeed='10' />
    <vehicle id='E_N_37' type='standard_car' route='E_N' depart='140.0' departLane='random' departSpeed='10' />
    <vehicle id='S_N_38' type='standard_car' route='S_N' depart='141.0' departLane='random' departSpeed='10' />
    <vehicle id='W_S_39' type='standard_car' route='W_S' depart='143.0' departLane='random' departSpeed='10' />
    <vehicle id='W_E_40' type='standard_car' route='W_E' depart='144.0' departLane='random' departSpeed='10' />
    <vehicle id='N_W_41' type='standard_car' route='N_W' depart='144.0' departLane='random' departSpeed='10' />
    <vehicle id='E_W_42' type='standard_car' route='E_W' depart='144.0' departLane='random' departSpeed='10' />
    <vehicle id='E_W_43' type='standard_car' route='E_W' depart='144.0' departLane='random' departSpeed='10' />
    <vehicle id='N_S_44' type='standard_car' route='N_S' depart='145.0' departLane='random' departSpeed='10' />
    <vehicle id='S_E_45' type='standard_car' route='S_E' depart='145.0' departLane='random' departSpeed='10' />
    <vehicle id='S_N_46' type='standard_car' route='S_N' depart='145.0' departLane='random' departSpeed='10' />
    <vehicle id='S_N_47' type='standard_car' route='S_N' depart='147.0' departLane='random' departSpeed='10' />
    <vehicle id='E_N_48' type='standard_car' route='E_N' depart='148.0' departLane='random' departSpeed='10' />
    <vehicle id='E_N_49' type='standard_car' route='E_N' depart='152.0' departLane='random' departSpeed='10' />
    <vehicle id='W_S_50' type='standard_car' route='W_S' depart='153.0' departLane='random' departSpeed='10' />
    <vehicle id='S_N_51' type='standard_car' route='S_N' depart='154.0' departLane='random' departSpeed='10' />
    <vehicle id='S_N_52' type='standard_car' route='S_N' depart='154.0' departLane='random' departSpeed='10' />
    <vehicle id='E_N_53' type='standard_car' route='E_N' depart='155.0' departLane='random' departSpeed='10' />
    <vehicle id='N_S_54' type='standard_car' route='N_S' depart='156.0' departLane='random' departSpeed='10' />
    <vehicle id='W_E_55' type='standard_car' route='W_E' depart='159.0' departLane='random' departSpeed='10' />
    <vehicle id='E_W_56' type='standard_car' route='E_W' depart='162.0' departLane='random' departSpeed='10' />
    <vehicle id='N_S_57' type='standard_car' route='N_S' depart='163.0' departLane='random' departSpeed='10' />
    <vehicle id='W_E_58' type='standard_car' route='W_E' depart='163.0' departLane='random' departSpeed='10' />
    <vehicle id='N_W_59' type='standard_car' route='N_W' depart='163.0' departLane='random' departSpeed='10' />
    <vehicle id='N_W_60' type='standard_car' route='N_W' depart='165.0' departLane='random' departSpeed='10' />
    <vehicle id='N_W_61' type='standard_car' route='N_W' depart='166.0' departLane='random' departSpeed='10' />
    <vehicle id='N_S_62' type='standard_car' route='N_S' depart='168.0' departLane='random' departSpeed='10' />
    <vehicle id='N_W_63' type='standard_car' route='N_W' depart='170.0' departLane='random' departSpeed='10' />
    <vehicle id='S_N_64' type='standard_car' route='S_N' depart='170.0' departLane='random' departSpeed='10' />
    <vehicle id='N_W_65' type='standard_car' route='N_W' depart='173.0' departLane='random' departSpeed='10' />
    <vehicle id='S_N_66' type='standard_car' route='S_N' depart='174.0' departLane='random' departSpeed='10' />
    <vehicle id='S_N_67' type='standard_car' route='S_N' depart='174.0' departLane='random' departSpeed='10' />
    <vehicle id='S_N_68' type='standard_car' route='S_N' depart='178.0' departLane='random' departSpeed='10' />
    <vehicle id='E_W_69' type='standard_car' route='E_W' depart='179.0' departLane='random' departSpeed='10' />
    <vehicle id='W_S_70' type='standard_car' route='W_S' depart='180.0' departLane='random' departSpeed='10' />
    <vehicle id='W_E_71' type='standard_car' route='W_E' depart='181.0' departLane='random' departSpeed='10' />
    <vehicle id='S_E_72' type='standard_car' route='S_E' depart='181.0' departLane='random' departSpeed='10' />
    <vehicle id='E_W_73' type='standard_car' route='E_W' depart='182.0' departLane='random' departSpeed='10' />
    <vehicle id='S_E_74' type='standard_car' route='S_E' depart='184.0' departLane='random' departSpeed='10' />
    <vehicle id='E_N_75' type='standard_car' route='E_N' depart='188.0' departLane='random' departSpeed='10' />
    <vehicle id='W_S_76' type='standard_car' route='W_S' depart='189.0' departLane='random' departSpeed='10' />
    <vehicle id='S_E_77' type='standard_car' route='S_E' depart='192.0' departLane='random' departSpeed='10' />
    <vehicle id='S_N_78' type='standard_car' route='S_N' depart='195.0' departLane='random' departSpeed='10' />
    <vehicle id='W_E_79' type='standard_car' route='W_E' depart='195.0' departLane='random' departSpeed='10' />
    <vehicle id='E_W_80' type='standard_car' route='E_W' depart='197.0' departLane='random' departSpeed='10' />
    <vehicle id='N_S_81' type='standard_car' route='N_S' depart='198.0' departLane='random' departSpeed='10' />
    <vehicle id='E_W_82' type='standard_car' route='E_W' depart='198.0' departLane='random' departSpeed='10' />
    <vehicle id='E_N_83' type='standard_car' route='E_N' depart='199.0' departLane='random' departSpeed='10' />
    <vehicle id='E_N_84' type='standard_car' route='E_N' depart='201.0' departLane='random' departSpeed='10' />
    <vehicle id='E_N_85' type='standard_car' route='E_N' depart='202.0' departLane='random' departSpeed='10' />
    <vehicle id='S_E_86' type='standard_car' route='S_E' depart='203.0' departLane='random' departSpeed='10' />
    <vehicle id='W_E_87' type='standard_car' route='W_E' depart='203.0' departLane='random' departSpeed='10' />
    <vehicle id='S_E_88' type='standard_car' route='S_E' depart='204.0' departLane='random' departSpeed='10' />
    <vehicle id='N_S_89' type='standard_car' route='N_S' depart='205.0' departLane='random' departSpeed='10' />
    <vehicle id='E_W_90' type='standard_car' route='E_W' depart='206.0' departLane='random' departSpeed='10' />
    <vehicle id='S_N_91' type='standard_car' route='S_N' depart='206.0' departLane='random' departSpeed='10' />
    <vehicle id='S_N_92' type='standard_car' route='S_N' depart='207.0' departLane='random' departSpeed='10' />
    <vehicle id='W_E_93' type='standard_car' route='W_E' depart='208.0' departLane='random' departSpeed='10' />
    <vehicle id='S_E_94' type='standard_car' route='S_E' depart='208.0' departLane='random' departSpeed='10' />
    <vehicle id='E_W_95' type='standard_car' route='E_W' depart='211.0' departLane='random' departSpeed='10' />
    <vehicle id='E_W_96' type='standard_car' route='E_W' depart='213.0' departLane='random' departSpeed='10' />
    <vehicle id='N_S_97' type='standard_car' route='N_S' depart='216.0' departLane='random' departSpeed='10' />
    <vehicle id='S_E_98' type='standard_car' route='S_E' depart='216.0' departLane='random' departSpeed='10' />
    <vehicle id='E_W_99' type='standard_car' route='E_W' depart='217.0' departLane='random' departSpeed='10' />
    <vehicle id='N_W_100' type='standard_car' route='N_W' depart='218.0' departLane='random' departSpeed='10' />
    <vehicle id='E_W_101' type='standard_car' route='E_W' depart='218.0' departLane='random' departSpeed='10' />
    <vehicle id='N_S_102' type='standard_car' route='N_S' depart='220.0' departLane='random' departSpeed='10' />
    <vehicle id='W_E_103' type='standard_car' route='W_E' depart='220.0' departLane='random' departSpeed='10' />
    <vehicle id='N_S_104' type='standard_car' route='N_S' depart='220.0' departLane='random' departSpeed='10' />
    <vehicle id='N_S_105' type='standard_car' route='N_S' depart='220.0' departLane='random' departSpeed='10' />
    <vehicle id='W_S_106' type='standard_car' route='W_S' depart='220.0' departLane='random' departSpeed='10' />
    <vehicle id='S_N_107' type='standard_car' route='S_N' depart='221.0' departLane='random' departSpeed='10' />
    <vehicle id='S_N_108' type='standard_car' route='S_N' depart='224.0' departLane='random' departSpeed='10' />
    <vehicle id='N_S_109' type='standard_car' route='N_S' depart='225.0' departLane='random' departSpeed='10' />
    <vehicle id='W_S_110' type='standard_car' route='W_S' depart='228.0' departLane='random' departSpeed='10' />
    <vehicle id='W_S_111' type='standard_car' route='W_S' depart='228.0' departLane='random' departSpeed='10' />
    <vehicle id='N_S_112' type='standard_car' route='N_S' depart='228.0' departLane='random' departSpeed='10' />
    <vehicle id='N_W_113' type='standard_car' route='N_W' depart='230.0' departLane='random' departSpeed='10' />
    <vehicle id='N_S_114' type='standard_car' route='N_S' depart='231.0' departLane='random' departSpeed='10' />
    <vehicle id='W_S_115' type='standard_car' route='W_S' depart='231.0' departLane='random' departSpeed='10' />
    <vehicle id='E_N_116' type='standard_car' route='E_N' depart='234.0' departLane='random' departSpeed='10' />
    <vehicle id='S_N_117' type='standard_car' route='S_N' depart='238.0' departLane='random' departSpeed='10' />
    <vehicle id='N_S_118' type='standard_car' route='N_S' depart='239.0' departLane='random' departSpeed='10' />
    <vehicle id='E_W_119' type='standard_car' route='E_W' depart='239.0' departLane='random' departSpeed='10' />
    <vehicle id='N_W_120' type='standard_car' route='N_W' depart='240.0' departLane='random' departSpeed='10' />
    <vehicle id='S_N_121' type='standard_car' route='S_N' depart='240.0' departLane='random' departSpeed='10' />
    <vehicle id='W_S_122' type='standard_car' route='W_S' depart='241.0' departLane='random' departSpeed='10' />
    <vehicle id='E_N_123' type='standard_car' route='E_N' depart='242.0' departLane='random' departSpeed='10' />
    <vehicle id='E_W_124' type='standard_car' route='E_W' depart='243.0' departLane='random' departSpeed='10' />
    <vehicle id='W_E_125' type='standard_car' route='W_E' depart='244.0' departLane='random' departSpeed='10' />
    <vehicle id='E_W_126' type='standard_car' route='E_W' depart='244.0' departLane='random' departSpeed='10' />
    <vehicle id='E_W_127' type='standard_car' route='E_W' depart='245.0' departLane='random' departSpeed='10' />
    <vehicle id='S_E_128' type='standard_car' route='S_E' depart='245.0' departLane='random' departSpeed='10' />
    <vehicle id='N_W_129' type='standard_car' route='N_W' depart='246.0' departLane='random' departSpeed='10' />
    <vehicle id='S_N_130' type='standard_car' route='S_N' depart='246.0' departLane='random' departSpeed='10' />
    <vehicle id='S_E_131' type='standard_car' route='S_E' depart='247.0' departLane='random' departSpeed='10' />
    <vehicle id='S_N_132' type='standard_car' route='S_N' depart='247.0' departLane='random' departSpeed='10' />
    <vehicle id='E_N_133' type='standard_car' route='E_N' depart='247.0' departLane='random' departSpeed='10' />
    <vehicle id='W_E_134' type='standard_car' route='W_E' depart='248.0' departLane='random' departSpeed='10' />
    <vehicle id='W_E_135' type='standard_car' route='W_E' depart='251.0' departLane='random' departSpeed='10' />
    <vehicle id='W_E_136' type='standard_car' route='W_E' depart='252.0' departLane='random' departSpeed='10' />
    <vehicle id='W_E_137' type='standard_car' route='W_E' depart='252.0' departLane='random' departSpeed='10' />
    <vehicle id='W_E_138' type='standard_car' route='W_E' depart='253.0' departLane='random' departSpeed='10' />
    <vehicle id='S_N_139' type='standard_car' route='S_N' depart='254.0' departLane='random' departSpeed='10' />
    <vehicle id='N_S_140' type='standard_car' route='N_S' depart='255.0' departLane='random' departSpeed='10' />
    <vehicle id='E_W_141' type='standard_car' route='E_W' depart='257.0' departLane='random' departSpeed='10' />
    <vehicle id='E_N_142' type='standard_car' route='E_N' depart='258.0' departLane='random' departSpeed='10' />
    <vehicle id='W_E_143' type='standard_car' route='W_E' depart='259.0' departLane='random' departSpeed='10' />
    <vehicle id='S_N_144' type='standard_car' route='S_N' depart='259.0' departLane='random' departSpeed='10' />
    <vehicle id='E_N_145' type='standard_car' route='E_N' depart='259.0' departLane='random' departSpeed='10' />
    <vehicle id='W_E_146' type='standard_car' route='W_E' depart='261.0' departLane='random' departSpeed='10' />
    <vehicle id='W_S_147' type='standard_car' route='W_S' depart='262.0' departLane='random' departSpeed='10' />
    <vehicle id='N_S_148' type='standard_car' route='N_S' depart='262.0' departLane='random' departSpeed='10' />
    <vehicle id='W_S_149' type='standard_car' route='W_S' depart='262.0' departLane='random' departSpeed='10' />
    <vehicle id='E_W_150' type='standard_car' route='E_W' depart='264.0' departLane='random' departSpeed='10' />
    <vehicle id='E_W_151' type='standard_car' route='E_W' depart='264.0' departLane='random' departSpeed='10' />
    <vehicle id='N_S_152' type='standard_car' route='N_S' depart='265.0' departLane='random' departSpeed='10' />
    <vehicle id='S_N_153' type='standard_car' route='S_N' depart='265.0' departLane='random' departSpeed='10' />
    <vehicle id='E_N_154' type='standard_car' route='E_N' depart='265.0' departLane='random' departSpeed='10' />
    <vehicle id='N_S_155' type='standard_car' route='N_S' depart='266.0' departLane='random' departSpeed='10' />
    <vehicle id='E_N_156' type='standard_car' route='E_N' depart='266.0' departLane='random' departSpeed='10' />
    <vehicle id='S_E_157' type='standard_car' route='S_E' depart='268.0' departLane='random' departSpeed='10' />
    <vehicle id='E_N_158' type='standard_car' route='E_N' depart='271.0' departLane='random' departSpeed='10' />
    <vehicle id='E_W_159' type='standard_car' route='E_W' depart='274.0' departLane='random' departSpeed='10' />
    <vehicle id='S_E_160' type='standard_car' route='S_E' depart='275.0' departLane='random' departSpeed='10' />
    <vehicle id='E_N_161' type='standard_car' route='E_N' depart='277.0' departLane='random' departSpeed='10' />
    <vehicle id='E_N_162' type='standard_car' route='E_N' depart='281.0' departLane='random' departSpeed='10' />
    <vehicle id='E_W_163' type='standard_car' route='E_W' depart='281.0' departLane='random' departSpeed='10' />
    <vehicle id='S_N_164' type='standard_car' route='S_N' depart='281.0' departLane='random' departSpeed='10' />
    <vehicle id='N_S_165' type='standard_car' route='N_S' depart='283.0' departLane='random' departSpeed='10' />
    <vehicle id='E_W_166' type='standard_car' route='E_W' depart='283.0' departLane='random' departSpeed='10' />
    <vehicle id='N_S_167' type='standard_car' route='N_S' depart='284.0' departLane='random' departSpeed='10' />
    <vehicle id='S_N_168' type='standard_car' route='S_N' depart='284.0' departLane='random' departSpeed='10' />
    <vehicle id='E_N_169' type='standard_car' route='E_N' depart='284.0' departLane='random' departSpeed='10' />
    <vehicle id='S_N_170' type='standard_car' route='S_N' depart='285.0' departLane='random' departSpeed='10' />
    <vehicle id='E_W_171' type='standard_car' route='E_W' depart='287.0' departLane='random' departSpeed='10' />
    <vehicle id='W_E_172' type='standard_car' route='W_E' depart='288.0' departLane='random' departSpeed='10' />
    <vehicle id='S_E_173' type='standard_car' route='S_E' depart='289.0' departLane='random' departSpeed='10' />
    <vehicle id='W_S_174' type='standard_car' route='W_S' depart='290.0' departLane='random' departSpeed='10' />
    <vehicle id='E_W_175' type='standard_car' route='E_W' depart='290.0' departLane='random' departSpeed='10' />
    <vehicle id='S_N_176' type='standard_car' route='S_N' depart='291.0' departLane='random' departSpeed='10' />
    <vehicle id='S_N_177' type='standard_car' route='S_N' depart='292.0' departLane='random' departSpeed='10' />
    <vehicle id='E_W_178' type='standard_car' route='E_W' depart='293.0' departLane='random' departSpeed='10' />
    <vehicle id='S_N_179' type='standard_car' route='S_N' depart='293.0' departLane='random' departSpeed='10' />
    <vehicle id='N_S_180' type='standard_car' route='N_S' depart='294.0' departLane='random' departSpeed='10' />
    <vehicle id='S_E_181' type='standard_car' route='S_E' depart='296.0' departLane='random' departSpeed='10' />
    <vehicle id='W_E_182' type='standard_car' route='W_E' depart='297.0' departLane='random' departSpeed='10' />
    <vehicle id='N_W_183' type='standard_car' route='N_W' depart='298.0' departLane='random' departSpeed='10' />
    <vehicle id='E_N_184' type='standard_car' route='E_N' depart='299.0' departLane='random' departSpeed='10' />
    <vehicle id='S_E_185' type='standard_car' route='S_E' depart='299.0' departLane='random' departSpeed='10' />
    <vehicle id='S_E_186' type='standard_car' route='S_E' depart='301.0' departLane='random' departSpeed='10' />
    <vehicle id='N_S_187' type='standard_car' route='N_S' depart='301.0' departLane='random' departSpeed='10' />
    <vehicle id='W_E_188' type='standard_car' route='W_E' depart='302.0' departLane='random' departSpeed='10' />
    <vehicle id='E_N_189' type='standard_car' route='E_N' depart='302.0' departLane='random' departSpeed='10' />
    <vehicle id='S_E_190' type='standard_car' route='S_E' depart='302.0' departLane='random' departSpeed='10' />
    <vehicle id='S_N_191' type='standard_car' route='S_N' depart='305.0' departLane='random' departSpeed='10' />
    <vehicle id='N_S_192' type='standard_car' route='N_S' depart='305.0' departLane='random' departSpeed='10' />
    <vehicle id='W_E_193' type='standard_car' route='W_E' depart='305.0' departLane='random' departSpeed='10' />
    <vehicle id='S_N_194' type='standard_car' route='S_N' depart='307.0' departLane='random' departSpeed='10' />
    <vehicle id='W_E_195' type='standard_car' route='W_E' depart='308.0' departLane='random' departSpeed='10' />
    <vehicle id='S_E_196' type='standard_car' route='S_E' depart='308.0' departLane='random' departSpeed='10' />
    <vehicle id='S_N_197' type='standard_car' route='S_N' depart='309.0' departLane='random' departSpeed='10' />
    <vehicle id='S_N_198' type='standard_car' route='S_N' depart='309.0' departLane='random' departSpeed='10' />
    <vehicle id='N_S_199' type='standard_car' route='N_S' depart='310.0' departLane='random' departSpeed='10' />
    <vehicle id='W_S_200' type='standard_car' route='W_S' depart='310.0' departLane='random' departSpeed='10' />
    <vehicle id='W_S_201' type='standard_car' route='W_S' depart='311.0' departLane='random' departSpeed='10' />
    <vehicle id='W_S_202' type='standard_car' route='W_S' depart='311.0' departLane='random' departSpeed='10' />
    <vehicle id='N_S_203' type='standard_car' route='N_S' depart='311.0' departLane='random' departSpeed='10' />
    <vehicle id='E_W_204' type='standard_car' route='E_W' depart='312.0' departLane='random' departSpeed='10' />
    <vehicle id='S_E_205' type='standard_car' route='S_E' depart='313.0' departLane='random' departSpeed='10' />
    <vehicle id='S_N_206' type='standard_car' route='S_N' depart='315.0' departLane='random' departSpeed='10' />
    <vehicle id='N_W_207' type='standard_car' route='N_W' depart='315.0' departLane='random' departSpeed='10' />
    <vehicle id='N_W_208' type='standard_car' route='N_W' depart='317.0' departLane='random' departSpeed='10' />
    <vehicle id='W_E_209' type='standard_car' route='W_E' depart='317.0' departLane='random' departSpeed='10' />
    <vehicle id='N_S_210' type='standard_car' route='N_S' depart='318.0' departLane='random' departSpeed='10' />
    <vehicle id='S_E_211' type='standard_car' route='S_E' depart='319.0' departLane='random' departSpeed='10' />
    <vehicle id='E_W_212' type='standard_car' route='E_W' depart='324.0' departLane='random' departSpeed='10' />
    <vehicle id='N_S_213' type='standard_car' route='N_S' depart='324.0' departLane='random' departSpeed='10' />
    <vehicle id='W_E_214' type='standard_car' route='W_E' depart='324.0' departLane='random' departSpeed='10' />
    <vehicle id='S_N_215' type='standard_car' route='S_N' depart='325.0' departLane='random' departSpeed='10' />
    <vehicle id='E_W_216' type='standard_car' route='E_W' depart='326.0' departLane='random' departSpeed='10' />
    <vehicle id='E_W_217' type='standard_car' route='E_W' depart='327.0' departLane='random' departSpeed='10' />
    <vehicle id='N_W_218' type='standard_car' route='N_W' depart='328.0' departLane='random' departSpeed='10' />
    <vehicle id='W_E_219' type='standard_car' route='W_E' depart='329.0' departLane='random' departSpeed='10' />
    <vehicle id='S_E_220' type='standard_car' route='S_E' depart='331.0' departLane='random' departSpeed='10' />
    <vehicle id='E_W_221' type='standard_car' route='E_W' depart='331.0' departLane='random' departSpeed='10' />
    <vehicle id='W_S_222' type='standard_car' route='W_S' depart='332.0' departLane='random' departSpeed='10' />
    <vehicle id='N_S_223' type='standard_car' route='N_S' depart='332.0' departLane='random' departSpeed='10' />
    <vehicle id='N_S_224' type='standard_car' route='N_S' depart='333.0' departLane='random' departSpeed='10' />
    <vehicle id='N_W_225' type='standard_car' route='N_W' depart='334.0' departLane='random' departSpeed='10' />
    <vehicle id='W_S_226' type='standard_car' route='W_S' depart='335.0' departLane='random' departSpeed='10' />
    <vehicle id='S_E_227' type='standard_car' route='S_E' depart='335.0' departLane='random' departSpeed='10' />
    <vehicle id='N_S_228' type='standard_car' route='N_S' depart='337.0' departLane='random' departSpeed='10' />
    <vehicle id='W_E_229' type='standard_car' route='W_E' depart='337.0' departLane='random' departSpeed='10' />
    <vehicle id='N_W_230' type='standard_car' route='N_W' depart='338.0' departLane='random' departSpeed='10' />
    <vehicle id='N_W_231' type='standard_car' route='N_W' depart='338.0' departLane='random' departSpeed='10' />
    <vehicle id='N_W_232' type='standard_car' route='N_W' depart='338.0' departLane='random' departSpeed='10' />
    <vehicle id='N_S_233' type='standard_car' route='N_S' depart='339.0' departLane='random' departSpeed='10' />
    <vehicle id='W_E_234' type='standard_car' route='W_E' depart='339.0' departLane='random' departSpeed='10' />
    <vehicle id='E_N_235' type='standard_car' route='E_N' depart='340.0' departLane='random' departSpeed='10' />
    <vehicle id='N_S_236' type='standard_car' route='N_S' depart='340.0' departLane='random' departSpeed='10' />
    <vehicle id='S_N_237' type='standard_car' route='S_N' depart='341.0' departLane='random' departSpeed='10' />
    <vehicle id='S_N_238' type='standard_car' route='S_N' depart='341.0' departLane='random' departSpeed='10' />
    <vehicle id='E_W_239' type='standard_car' route='E_W' depart='343.0' departLane='random' departSpeed='10' />
    <vehicle id='S_E_240' type='standard_car' route='S_E' depart='344.0' departLane='random' departSpeed='10' />
    <vehicle id='E_N_241' type='standard_car' route='E_N' depart='345.0' departLane='random' departSpeed='10' />
    <vehicle id='E_N_242' type='standard_car' route='E_N' depart='345.0' departLane='random' departSpeed='10' />
    <vehicle id='W_E_243' type='standard_car' route='W_E' depart='345.0' departLane='random' departSpeed='10' />
    <vehicle id='S_E_244' type='standard_car' route='S_E' depart='346.0' departLane='random' departSpeed='10' />
    <vehicle id='S_N_245' type='standard_car' route='S_N' depart='347.0' departLane='random' departSpeed='10' />
    <vehicle id='E_W_246' type='standard_car' route='E_W' depart='347.0' departLane='random' departSpeed='10' />
    <vehicle id='W_E_247' type='standard_car' route='W_E' depart='347.0' departLane='random' departSpeed='10' />
    <vehicle id='E_N_248' type='standard_car' route='E_N' depart='347.0' departLane='random' departSpeed='10' />
    <vehicle id='N_W_249' type='standard_car' route='N_W' depart='348.0' departLane='random' departSpeed='10' />
    <vehicle id='E_W_250' type='standard_car' route='E_W' depart='348.0' departLane='random' departSpeed='10' />
    <vehicle id='W_E_251' type='standard_car' route='W_E' depart='349.0' departLane='random' departSpeed='10' />
    <vehicle id='E_N_252' type='standard_car' route='E_N' depart='349.0' departLane='random' departSpeed='10' />
    <vehicle id='S_E_253' type='standard_car' route='S_E' depart='350.0' departLane='random' departSpeed='10' />
    <vehicle id='S_N_254' type='standard_car' route='S_N' depart='350.0' departLane='random' departSpeed='10' />
    <vehicle id='N_W_255' type='standard_car' route='N_W' depart='350.0' departLane='random' departSpeed='10' />
    <vehicle id='N_S_256' type='standard_car' route='N_S' depart='351.0' departLane='random' departSpeed='10' />
    <vehicle id='S_E_257' type='standard_car' route='S_E' depart='352.0' departLane='random' departSpeed='10' />
    <vehicle id='W_E_258' type='standard_car' route='W_E' depart='353.0' departLane='random' departSpeed='10' />
    <vehicle id='W_E_259' type='standard_car' route='W_E' depart='354.0' departLane='random' departSpeed='10' />