<routes>
    <vType id="standard_car" length="5.0" maxSpeed="15" minGap="2.5" accel="2.0" decel="4.5" />
    <route id="N_S" edges="road_1_2_3 road_1_1_3"/>
    <route id="N_E" edges="road_1_2_3 road_1_1_0"/>
    <route id="N_W" edges="road_1_2_3 road_1_1_2"/>
    <route id="S_W" edges="road_1_0_1 road_1_1_2"/>
    <route id="S_E" edges="road_1_0_1 road_1_1_0"/>
    <route id="S_N" edges="road_1_0_1 road_1_1_1"/>

    <route id="W_E" edges="road_0_1_0 road_1_1_0"/>
    <route id="W_N" edges="road_0_1_0 road_1_1_1"/>
    <route id="W_S" edges="road_0_1_0 road_1_1_3"/>
    <route id="E_N" edges="road_2_1_2 road_1_1_1"/>
    <route id="E_S" edges="road_2_1_2 road_1_1_3"/>
    <route id="E_W" edges="road_2_1_2 road_1_1_2"/>
            
    <vehicle id='S_N_0' type='standard_car' route='S_N' depart='11.0' departLane='random' departSpeed='10' />
    <vehicle id='S_N_1' type='standard_car' route='S_N' depart='14.0' departLane='random' departSpeed='10' />
    <vehicle id='E_W_2' type='standard_car' route='E_W' depart='22.0' departLane='random' departSpeed='10' />
    <vehicle id='N_S_3' type='standard_car' route='N_S' depart='33.0' departLane='random' departSpeed='10' />
    <vehicle id='N_S_4' type='standard_car' route='N_S' depart='45.0' departLane='random' departSpeed='10' />
    <vehicle id='N_W_5' type='standard_car' route='N_W' depart='50.0' departLane='random' departSpeed='10' />
    <vehicle id='W_S_6' type='standard_car' route='W_S' depart='59.0' departLane='random' departSpeed='10' />
    <vehicle id='N_W_7' type='standard_car' route='N_W' depart='62.0' departLane='random' departSpeed='10' />
    <vehicle id='E_W_8' type='standard_car' route='E_W' depart='63.0' departLane='random' departSpeed='10' />
    <vehicle id='W_E_9' type='standard_car' route='W_E' depart='71.0' departLane='random' departSpeed='10' />
    <vehicle id='S_E_10' type='standard_car' route='S_E' depart='73.0' departLane='random' departSpeed='10' />
    <vehicle id='E_N_11' type='standard_car' route='E_N' depart='78.0' departLane='random' departSpeed='10' />
    <vehicle id='E_W_12' type='standard_car' route='E_W' depart='79.0' departLane='random' departSpeed='10' />
    <vehicle id='S_N_13' type='standard_car' route='S_N' depart='82.0' departLane='random' departSpeed='10' />
    <vehicle id='S_N_14' type='standard_car' route='S_N' depart='107.0' departLane='random' departSpeed='10' />
    <vehicle id='W_E_15' type='standard_car' route='W_E' depart='109.0' departLane='random' departSpeed='10' />
    <vehicle id='S_N_16' type='standard_car' route='S_N' depart='113.0' departLane='random' departSpeed='10' />
    <vehicle id='W_S_17' type='standard_car' route='W_S' depart='117.0' departLane='random' departSpeed='10' />
    <vehicle id='E_N_18' type='standard_car' route='E_N' depart='118.0' departLane='random' departSpeed='10' />
    <vehicle id='S_N_19' type='standard_car' route='S_N' depart='127.0' departLane='random' departSpeed='10' />
    <vehicle id='N_W_20' type='standard_car' route='N_W' depart='132.0' departLane='random' departSpeed='10' />
    <vehicle id='W_S_21' type='standard_car' route='W_S' depart='138.0' departLane='random' departSpeed='10' />
    <vehicle id='W_E_22' type='standard_car' route='W_E' depart='139.0' departLane='random' departSpeed='10' />
    <vehicle id='W_S_23' type='standard_car' route='W_S' depart='141.0' departLane='random' departSpeed='10' />
    <vehicle id='W_E_24' type='standard_car' route='W_E' depart='141.0' departLane='random' departSpeed='10' />
    <vehicle id='S_N_25' type='standard_car' route='S_N' depart='143.0' departLane='random' departSpeed='10' />
    <vehicle id='S_E_26' type='standard_car' route='S_E' depart='143.0' departLane='random' departSpeed='10' />
    <vehicle id='W_E_27' type='standard_car' route='W_E' depart='144.0' departLane='random' departSpeed='10' />
    <vehicle id='N_W_28' type='standard_car' route='N_W' depart='153.0' departLane='random' departSpeed='10' />
    <vehicle id='N_S_29' type='standard_car' route='N_S' depart='154.0' departLane='random' departSpeed='10' />
    <vehicle id='N_W_30' type='standard_car' route='N_W' depart='154.0' departLane='random' departSpeed='10' />
    <vehicle id='S_E_31' type='standard_car' route='S_E' depart='156.0' departLane='random' departSpeed='10' />
    <vehicle id='N_S_32' type='standard_car' route='N_S' depart='157.0' departLane='random' departSpeed='10' />
    <vehicle id='E_N_33' type='standard_car' route='E_N' depart='158.0' departLane='random' departSpeed='10' />
    <vehicle id='W_S_34' type='standard_car' route='W_S' depart='160.0' departLane='random' departSpeed='10' />
    <vehicle id='W_S_35' type='standard_car' route='W_S' depart='160.0' departLane='random' departSpeed='10' />
    <vehicle id='W_S_36' type='standard_car' route='W_S' depart='161.0' departLane='random' departSpeed='10' />
    <vehicle id='W_S_37' type='standard_car' route='W_S' depart='161.0' departLane='random' departSpeed='10' />
    <vehicle id='E_N_38' type='standard_car' route='E_N' depart='162.0' departLane='random' departSpeed='10' />
    <vehicle id='S_N_39' type='standard_car' route='S_N' depart='163.0' departLane='random' departSpeed='10' />
    <vehicle id='E_W_40' type='standard_car' route='E_W' depart='165.0' departLane='random' departSpeed='10' />
    <vehicle id='N_S_41' type='standard_car' route='N_S' depart='165.0' departLane='random' departSpeed='10' />
    <vehicle id='E_N_42' type='standard_car' route='E_N' depart='166.0' departLane='random' departSpeed='10' />
    <vehicle id='S_N_43' type='standard_car' route='S_N' depart='166.0' departLane='random' departSpeed='10' />
    <vehicle id='S_E_44' type='standard_car' route='S_E' depart='168.0' departLane='random' departSpeed='10' />
    <vehicle id='S_N_45' type='standard_car' route='S_N' depart='168.0' departLane='random' departSpeed='10' />
    <vehicle id='E_W_46' type='standard_car' route='E_W' depart='172.0' departLane='random' departSpeed='10' />
    <vehicle id='E_W_47' type='standard_car' route='E_W' depart='175.0' departLane='random' departSpeed='10' />
    <vehicle id='S_N_48' type='standard_car' route='S_N' depart='178.0' departLane='random' departSpeed='10' />
    <vehicle id='W_E_49' type='standard_car' route='W_E' depart='179.0' departLane='random' departSpeed='10' />
    <vehicle id='N_S_50' type='standard_car' route='N_S' depart='181.0' departLane='random' departSpeed='10' />
    <vehicle id='W_E_51' type='standard_car' route='W_E' depart='183.0' departLane='random' departSpeed='10' />
    <vehicle id='W_E_52' type='standard_car' route='W_E' depart='186.0' departLane='random' departSpeed='10' />
    <vehicle id='S_N_53' type='standard_car' route='S_N' depart='187.0' departLane='random' departSpeed='10' />
    <vehicle id='N_S_54' type='standard_car' route='N_S' depart='189.0' departLane='random' departSpeed='10' />
    <vehicle id='S_E_55' type='standard_car' route='S_E' depart='191.0' departLane='random' departSpeed='10' />
    <vehicle id='W_E_56' type='standard_car' route='W_E' depart='192.0' departLane='random' departSpeed='10' />
    <vehicle id='S_N_57' type='standard_car' route='S_N' depart='194.0' departLane='random' departSpeed='10' />
    <vehicle id='E_W_58' type='standard_car' route='E_W' depart='196.0' departLane='random' departSpeed='10' />
    <vehicle id='E_W_59' type='standard_car' route='E_W' depart='196.0' departLane='random' departSpeed='10' />
    <vehicle id='S_E_60' type='standard_car' route='S_E' depart='196.0' departLane='random' departSpeed='10' />
    <vehicle id='E_W_61' type='standard_car' route='E_W' depart='199.0' departLane='random' departSpeed='10' />
    <vehicle id='N_S_62' type='standard_car' route='N_S' depart='205.0' departLane='random' departSpeed='10' />
    <vehicle id='W_S_63' type='standard_car' route='W_S' depart='209.0' departLane='random' departSpeed='10' />
    <vehicle id='W_E_64' type='standard_car' route='W_E' depart='209.0' departLane='random' departSpeed='10' />
    <vehicle id='N_W_65' type='standard_car' route='N_W' depart='213.0' departLane='random' departSpeed='10' />
    <vehicle id='E_W_66' type='standard_car' route='E_W' depart='215.0' departLane='random' departSpeed='10' />
    <vehicle id='W_E_67' type='standard_car' route='W_E' depart='215.0' departLane='random' departSpeed='10' />
    <vehicle id='E_N_68' type='standard_car' route='E_N' depart='219.0' departLane='random' departSpeed='10' />
    <vehicle id='N_W_69' type='standard_car' route='N_W' depart='220.0' departLane='random' departSpeed='10' />
    <vehicle id='E_W_70' type='standard_car' route='E_W' depart='220.0' departLane='random' departSpeed='10' />
    <vehicle id='S_N_71' type='standard_car' route='S_N' depart='223.0' departLane='random' departSpeed='10' />
    <vehicle id='S_E_72' type='standard_car' route='S_E' depart='226.0' departLane='random' departSpeed='10' />
    <vehicle id='S_E_73' type='standard_car' route='S_E' depart='227.0' departLane='random' departSpeed='10' />
    <vehicle id='N_S_74' type='standard_car' route='N_S' depart='227.0' departLane='random' departSpeed='10' />
    <vehicle id='W_E_75' type='standard_car' route='W_E' depart='227.0' departLane='random' departSpeed='10' />
    <vehicle id='S_N_76' type='standard_car' route='S_N' depart='227.0' departLane='random' departSpeed='10' />
    <vehicle id='W_S_77' type='standard_car' route='W_S' depart='228.0' departLane='random' departSpeed='10' />
    <vehicle id='S_E_78' type='standard_car' route='S_E' depart='228.0' departLane='random' departSpeed='10' />
    <vehicle id='S_E_79' type='standard_car' route='S_E' depart='228.0' departLane='random' departSpeed='10' />
    <vehicle id='S_N_80' type='standard_car' route='S_N' depart='228.0' departLane='random' departSpeed='10' />
    <vehicle id='N_W_81' type='standard_car' route='N_W' depart='229.0' departLane='random' departSpeed='10' />
    <vehicle id='E_N_82' type='standard_car' route='E_N' depart='230.0' departLane='random' departSpeed='10' />
    <vehicle id='E_N_83' type='standard_car' route='E_N' depart='231.0' departLane='random' departSpeed='10' />
    <vehicle id='S_N_84' type='standard_car' route='S_N' depart='233.0' departLane='random' departSpeed='10' />
    <vehicle id='E_W_85' type='standard_car' route='E_W' depart='233.0' departLane='random' departSpeed='10' />
    <vehicle id='W_S_86' type='standard_car' route='W_S' depart='233.0' departLane='random' departSpeed='10' />
    <vehicle id='E_W_87' type='standard_car' route='E_W' depart='234.0' departLane='random' departSpeed='10' />
    <vehicle id='E_N_88' type='standard_car' route='E_N' depart='237.0' departLane='random' departSpeed='10' />
    <vehicle id='E_W_89' type='standard_car' route='E_W' depart='240.0' departLane='random' departSpeed='10' />
    <vehicle id='E_W_90' type='standard_car' route='E_W' depart='242.0' departLane='random' departSpeed='10' />
    <vehicle id='S_N_91' type='standard_car' route='S_N' depart='244.0' departLane='random' departSpeed='10' />
    <vehicle id='N_W_92' type='standard_car' route='N_W' depart='245.0' departLane='random' departSpeed='10' />
    <vehicle id='S_N_93' type='standard_car' route='S_N' depart='246.0' departLane='random' departSpeed='10' />
    <vehicle id='S_N_94' type='standard_car' route='S_N' depart='246.0' departLane='random' departSpeed='10' />
    <vehicle id='N_S_95' type='standard_car' route='N_S' depart='249.0' departLane='random' departSpeed='10' />
    <vehicle id='S_E_96' type='standard_car' route='S_E' depart='249.0' departLane='random' departSpeed='10' />
    <vehicle id='S_N_97' type='standard_car' route='S_N' depart='249.0' departLane='random' departSpeed='10' />
    <vehicle id='E_N_98' type='standard_car' route='E_N' depart='249.0' departLane='random' departSpeed='10' />
    <vehicle id='S_E_99' type='standard_car' route='S_E' depart='251.0' departLane='random' departSpeed='10' />
    <vehicle id='W_E_100' type='standard_car' route='W_E' depart='255.0' departLane='random' departSpeed='10' />
    <vehicle id='E_W_101' type='standard_car' route='E_W' depart='256.0' departLane='random' departSpeed='10' />
    <vehicle id='E_N_102' type='standard_car' route='E_N' depart='257.0' departLane='random' departSpeed='10' />
    <vehicle id='W_S_103' type='standard_car' route='W_S' depart='258.0' departLane='random' departSpeed='10' />
    <vehicle id='N_S_104' type='standard_car' route='N_S' depart='259.0' departLane='random' departSpeed='10' />
    <vehicle id='E_N_105' type='standard_car' route='E_N' depart='259.0' departLane='random' departSpeed='10' />
    <vehicle id='E_N_106' type='standard_car' route='E_N' depart='259.0' departLane='random' departSpeed='10' />
    <vehicle id='N_W_107' type='standard_car' route='N_W' depart='261.0' departLane='random' departSpeed='10' />
    <vehicle id='E_N_108' type='standard_car' route='E_N' depart='262.0' departLane='random' departSpeed='10' />
    <vehicle id='W_S_109' type='standard_car' route='W_S' depart='262.0' departLane='random' departSpeed='10' />
    <vehicle id='W_S_110' type='standard_car' route='W_S' depart='265.0' departLane='random' departSpeed='10' />
    <vehicle id='N_W_111' type='standard_car' route='N_W' depart='265.0' departLane='random' departSpeed='10' />
    <vehicle id='E_N_112' type='standard_car' route='E_N' depart='267.0' departLane='random' departSpeed='10' />
    <vehicle id='W_E_113' type='standard_car' route='W_E' depart='269.0' departLane='random' departSpeed='10' />
    <vehicle id='S_N_114' type='standard_car' route='S_N' depart='271.0' departLane='random' departSpeed='10' />
    <vehicle id='W_S_115' type='standard_car' route='W_S' depart='271.0' departLane='random' departSpeed='10' />
    <vehicle id='E_N_116' type='standard_car' route='E_N' depart='274.0' departLane='random' departSpeed='10' />
    <vehicle id='S_E_117' type='standard_car' route='S_E' depart='274.0' departLane='random' departSpeed='10' />
    <vehicle id='W_S_118' type='standard_car' route='W_S' depart='275.0' departLane='random' departSpeed='10' />
    <vehicle id='W_S_119' type='standard_car' route='W_S' depart='277.0' departLane='random' departSpeed='10' />
    <vehicle id='E_N_120' type='standard_car' route='E_N' depart='278.0' departLane='random' departSpeed='10' />
    <vehicle id='W_E_121' type='standard_car' route='W_E' depart='281.0' departLane='random' departSpeed='10' />
    <vehicle id='W_S_122' type='standard_car' route='W_S' depart='281.0' departLane='random' departSpeed='10' />
    <vehicle id='W_E_123' type='standard_car' route='W_E' depart='282.0' departLane='random' departSpeed='10' />
    <vehicle id='W_E_124' type='standard_car' route='W_E' depart='282.0' departLane='random' departSpeed='10' />
    <vehicle id='N_S_125' type='standard_car' route='N_S' depart='285.0' departLane='random' departSpeed='10' />
    <vehicle id='S_E_126' type='standard_car' route='S_E' depart='286.0' departLane='random' departSpeed='10' />
    <vehicle id='S_E_127' type='standard_car' route='S_E' depart='287.0' departLane='random' departSpeed='10' />
    <vehicle id='E_W_128' type='standard_car' route='E_W' depart='287.0' departLane='random' departSpeed='10' />
    <vehicle id='S_E_129' type='standard_car' route='S_E' depart='289.0' departLane='random' departSpeed='10' />
    <vehicle id='S_E_130' type='standard_car' route='S_E' depart='293.0' departLane='random' departSpeed='10' />
    <vehicle id='N_S_131' type='standard_car' route='N_S' depart='294.0' departLane='random' departSpeed='10' />
    <vehicle id='E_W_132' type='standard_car' route='E_W' depart='294.0' departLane='random' departSpeed='10' />
    <vehicle id='E_W_133' type='standard_car' route='E_W' depart='295.0' departLane='random' departSpeed='10' />
    <vehicle id='E_W_134' type='standard_car' route='E_W' depart='296.0' departLane='random' departSpeed='10' />
    <vehicle id='E_W_135' type='standard_car' route='E_W' depart='296.0' departLane='random' departSpeed='10' />
    <vehicle id='N_W_136' type='standard_car' route='N_W' depart='299.0' departLane='random' departSpeed='10' />
    <vehicle id='E_N_137' type='standard_car' route='E_N' depart='299.0' departLane='random' departSpeed='10' />
    <vehicle id='E_N_138' type='standard_car' route='E_N' depart='303.0' departLane='random' departSpeed='10' />
    <vehicle id='E_N_139' type='standard_car' route='E_N' depart='303.0' departLane='random' departSpeed='10' />
    <vehicle id='S_N_140' type='standard_car' route='S_N' depart='304.0' departLane='random' departSpeed='10' />
    <vehicle id='W_E_141' type='standard_car' route='W_E' depart='305.0' departLane='random' departSpeed='10' />
    <vehicle id='E_W_142' type='standard_car' route='E_W' depart='307.0' departLane='random' departSpeed='10' />
    <vehicle id='W_E_143' type='standard_car' route='W_E' depart='309.0' departLane='random' departSpeed='10' />
    <vehicle id='E_N_144' type='standard_car' route='E_N' depart='311.0' departLane='random' departSpeed='10' />
    <vehicle id='S_E_145' type='standard_car' route='S_E' depart='314.0' departLane='random' departSpeed='10' />
    <vehicle id='N_W_146' type='standard_car' route='N_W' depart='315.0' departLane='random' departSpeed='10' />
    <vehicle id='S_E_147' type='standard_car' route='S_E' depart='317.0' departLane='random' departSpeed='10' />
    <vehicle id='S_E_148' type='standard_car' route='S_E' depart='317.0' departLane='random' departSpeed='10' />
    <vehicle id='E_W_149' type='standard_car' route='E_W' depart='319.0' departLane='random' departSpeed='10' />
    <vehicle id='W_E_150' type='standard_car' route='W_E' depart='320.0' departLane='random' departSpeed='10' />
    <vehicle id='S_N_151' type='standard_car' route='S_N' depart='321.0' departLane='random' departSpeed='10' />
    <vehicle id='N_W_152' type='standard_car' route='N_W' depart='324.0' departLane='random' departSpeed='10' />
    <vehicle id='N_W_153' type='standard_car' route='N_W' depart='324.0' departLane='random' departSpeed='10' />
    <vehicle id='N_S_154' type='standard_car' route='N_S' depart='325.0' departLane='random' departSpeed='10' />
    <vehicle id='E_W_155' type='standard_car' route='E_W' depart='325.0' departLane='random' departSpeed='10' />
    <vehicle id='E_W_156' type='standard_car' route='E_W' depart='326.0' departLane='random' departSpeed='10' />
    <vehicle id='N_S_157' type='standard_car' route='N_S' depart='327.0' departLane='random' departSpeed='10' />
    <vehicle id='S_E_158' type='standard_car' route='S_E' depart='328.0' departLane='random' departSpeed='10' />
    <vehicle id='W_S_159' type='standard_car' route='W_S' depart='328.0' departLane='random' departSpeed='10' />
    <vehicle id='E_W_160' type='standard_car' route='E_W' depart='329.0' departLane='random' departSpeed='10' />
    <vehicle id='S_N_161' type='standard_car' route='S_N' depart='329.0' departLane='random' departSpeed='10' />
    <vehicle id='E_W_162' type='standard_car' route='E_W' depart='330.0' departLane='random' departSpeed='10' />
    <vehicle id='W_E_163' type='standard_car' route='W_E' depart='330.0' departLane='random' departSpeed='10' />
    <vehicle id='S_E_164' type='standard_car' route='S_E' depart='332.0' departLane='random' departSpeed='10' />
    <vehicle id='N_S_165' type='standard_car' route='N_S' depart='335.0' departLane='random' departSpeed='10' />
    <vehicle id='N_S_166' type='standard_car' route='N_S' depart='336.0' departLane='random' departSpeed='10' />
    <vehicle id='W_S_167' type='standard_car' route='W_S' depart='336.0' departLane='random' departSpeed='10' />
    <vehicle id='E_W_168' type='standard_car' route='E_W' depart='341.0' departLane='random' departSpeed='10' />
    <vehicle id='W_E_169' type='standard_car' route='W_E' depart='342.0' departLane='random' departSpeed='10' />
    <vehicle id='E_W_170' type='standard_car' route='E_W' depart='342.0' departLane='random' departSpeed='10' />
    <vehicle id='E_W_171' type='standard_car' route='E_W' depart='343.0' departLane='random' departSpeed='10' />
    <vehicle id='E_W_172' type='standard_car' route='E_W' depart='345.0' departLane='random' departSpeed='10' />
    <vehicle id='E_N_173' type='standard_car' route='E_N' depart='345.0' departLane='random' departSpeed='10' />
    <vehicle id='E_N_174' type='standard_car' route='E_N' depart='350.0' departLane='random' departSpeed='10' />
    <vehicle id='W_E_175' type='standard_car' route='W_E' depart='351.0' departLane='random' departSpeed='10' />
    <vehicle id='E_W_176' type='standard_car' route='E_W' depart='353.0' departLane='random' departSpeed='10' />
    <vehicle id='E_W_177' type='standard_car' route='E_W' depart='355.0' departLane='random' departSpeed='10' />
    <vehicle id='E_W_178' type='standard_car' route='E_W' depart='359.0' departLane='random' departSpeed='10' />
    <vehicle id='N_S_179' type='standard_car' route='N_S' depart='360.0' departLane='random' departSpeed='10' />
    <vehicle id='E_N_180' type='standard_car' route='E_N' depart='361.0' departLane='random' departSpeed='10' />
    <vehicle id='W_E_181' type='standard_car' route='W_E' depart='361.0' departLane='random' departSpeed='10' />
    <vehicle id='E_W_182' type='standard_car' route='E_W' depart='362.0' departLane='random' departSpeed='10' />
    <vehicle id='N_S_183' type='standard_car' route='N_S' depart='363.0' departLane='random' departSpeed='10' />
    <vehicle id='W_E_184' type='standard_car' route='W_E' depart='363.0' departLane='random' departSpeed='10' />
    <vehicle id='N_W_185' type='standard_car' route='N_W' depart='364.0' departLane='random' departSpeed='10' />
    <vehicle id='W_E_186' type='standard_car' route='W_E' depart='364.0' departLane='random' departSpeed='10' />
    <vehicle id='S_N_187' type='standard_car' route='S_N' depart='370.0' departLane='random' departSpeed='10' />
    <vehicle id='S_N_188' type='standard_car' route='S_N' depart='370.0' departLane='random' departSpeed='10' />
    <vehicle id='E_N_189' type='standard_car' route='E_N' depart='371.0' departLane='random' departSpeed='10' />
    <vehicle id='E_W_190' type='standard_car' route='E_W' depart='371.0' departLane='random' departSpeed='10' />
    <vehicle id='E_W_191' type='standard_car' route='E_W' depart='373.0' departLane='random' departSpeed='10' />
    <vehicle id='S_E_192' type='standard_car' route='S_E' depart='373.0' departLane='random' departSpeed='10' />
    <vehicle id='N_W_193' type='standard_car' route='N_W' depart='373.0' departLane='random' departSpeed='10' />
    <vehicle id='N_S_194' type='standard_car' route='N_S' depart='373.0' departLane='random' departSpeed='10' />
    <vehicle id='S_N_195' type='standard_car' route='S_N' depart='377.0' departLane='random' departSpeed='10' />
    <vehicle id='E_W_196' type='standard_car' route='E_W' depart='378.0' departLane='random' departSpeed='10' />
    <vehicle id='E_N_197' type='standard_car' route='E_N' depart='378.0' departLane='random' departSpeed='10' />
    <vehicle id='N_S_198' type='standard_car' route='N_S' depart='380.0' departLane='random' departSpeed='10' />
    <vehicle id='S_N_199' type='standard_car' route='S_N' depart='381.0' departLane='random' departSpeed='10' />
    <vehicle id='W_E_200' type='standard_car' route='W_E' depart='381.0' departLane='random' departSpeed='10' />
    <vehicle id='E_W_201' type='standard_car' route='E_W' depart='381.0' departLane='random' departSpeed='10' />
    <vehicle id='N_W_202' type='standard_car' route='N_W' depart='381.0' departLane='random' departSpeed='10' />
    <vehicle id='S_N_203' type='standard_car' route='S_N' depart='381.0' departLane='random' departSpeed='10' />
    <vehicle id='W_S_204' type='standard_car' route='W_S' depart='383.0' departLane='random' departSpeed='10' />
    <vehicle id='E_N_205' type='standard_car' route='E_N' depart='383.0' departLane='random' departSpeed='10' />
    <vehicle id='E_W_206' type='standard_car' route='E_W' depart='385.0' departLane='random' departSpeed='10' />
    <vehicle id='W_E_207' type='standard_car' route='W_E' depart='387.0' departLane='random' departSpeed='10' />
    <vehicle id='W_S_208' type='standard_car' route='W_S' depart='390.0' departLane='random' departSpeed='10' />
    <vehicle id='N_S_209' type='standard_car' route='N_S' depart='390.0' departLane='random' departSpeed='10' />
    <vehicle id='W_S_210' type='standard_car' route='W_S' depart='391.0' departLane='random' departSpeed='10' />
    <vehicle id='N_S_211' type='standard_car' route='N_S' depart='392.0' departLane='random' departSpeed='10' />
    <vehicle id='W_E_212' type='standard_car' route='W_E' depart='393.0' departLane='random' departSpeed='10' />
    <vehicle id='W_E_213' type='standard_car' route='W_E' depart='393.0' departLane='random' departSpeed='10' />
    <vehicle id='N_S_214' type='standard_car' route='N_S' depart='393.0' departLane='random' departSpeed='10' />
    <vehicle id='E_N_215' type='standard_car' route='E_N' depart='395.0' departLane='random' departSpeed='10' />
    <vehicle id='N_S_216' type='standard_car' route='N_S' depart='395.0' departLane='random' departSpeed='10' />
    <vehicle id='S_E_217' type='standard_car' route='S_E' depart='395.0' departLane='random' departSpeed='10' />
    <vehicle id='E_N_218' type='standard_car' route='E_N' depart='396.0' departLane='random' departSpeed='10' />
    <vehicle id='E_W_219' type='standard_car' route='E_W' depart='397.0' departLane='random' departSpeed='10' />
    <vehicle id='W_S_220' type='standard_car' route='W_S' depart='398.0' departLane='random' departSpeed='10' />
    <vehicle id='S_E_221' type='standard_car' route='S_E' depart='398.0' departLane='random' departSpeed='10' />
    <vehicle id='S_E_222' type='standard_car' route='S_E' depart='400.0' departLane='random' departSpeed='10' />
    <vehicle id='N_W_223' type='standard_car' route='N_W' depart='401.0' departLane='random' departSpeed='10' />
    <vehicle id='W_E_224' type='standard_car' route='W_E' depart='401.0' departLane='random' departSpeed='10' />
    <vehicle id='W_E_225' type='standard_car' route='W_E' depart='402.0' departLane='random' departSpeed='10' />
    <vehicle id='W_E_226' type='standard_car' route='W_E' depart='402.0' departLane='random' departSpeed='10' />
    <vehicle id='W_E_227' type='standard_car' route='W_E' depart='406.0' departLane='random' departSpeed='10' />
    <vehicle id='N_W_228' type='standard_car' route='N_W' depart='406.0' departLane='random' departSpeed='10' />
    <vehicle id='W_E_229' type='standard_car' route='W_E' depart='407.0' departLane='random' departSpeed='10' />
    <vehicle id='S_N_230' type='standard_car' route='S_N' depart='409.0' departLane='random' departSpeed='10' />
    <vehicle id='W_E_231' type='standard_car' route='W_E' depart='411.0' departLane='random' departSpeed='10' />
    <vehicle id='E_W_232' type='standard_car' route='E_W' depart='413.0' departLane='random' departSpeed='10' />
    <vehicle id='E_W_233' type='standard_car' route='E_W' depart='414.0' departLane='random' departSpeed='10' />
    <vehicle id='N_S_234' type='standard_car' route='N_S' depart='420.0' departLane='random' departSpeed='10' />
    <vehicle id='E_N_235' type='standard_car' route='E_N' depart='421.0' departLane='random' departSpeed='10' />
    <vehicle id='W_S_236' type='standard_car' route='W_S' depart='422.0' departLane='random' departSpeed='10' />
    <vehicle id='N_W_237' type='standard_car' route='N_W' depart='423.0' departLane='random' departSpeed='10' />
    <vehicle id='E_N_238' type='standard_car' route='E_N' depart='424.0' departLane='random' departSpeed='10' />
    <vehicle id='W_E_239' type='standard_car' route='W_E' depart='424.0' departLane='random' departSpeed='10' />
    <vehicle id='S_E_240' type='standard_car' route='S_E' depart='427.0' departLane='random' departSpeed='10' />
    <vehicle id='E_N_241' type='standard_car' route='E_N' depart='428.0' departLane='random' departSpeed='10' />
    <vehicle id='W_E_242' type='standard_car' route='W_E' depart='432.0' departLane='random' departSpeed='10' />
    <vehicle id='N_S_243' type='standard_car' route='N_S' depart='433.0' departLane='random' departSpeed='10' />
    <vehicle id='E_N_244' type='standard_car' route='E_N' depart='433.0' departLane='random' departSpeed='10' />
    <vehicle id='S_E_245' type='standard_car' route='S_E' depart='434.0' departLane='random' departSpeed='10' />
    <vehicle id='N_S_246' type='standard_car' route='N_S' depart='438.0' departLane='random' departSpeed='10' />
    <vehicle id='S_N_247' type='standard_car' route='S_N' depart='441.0' departLane='random' departSpeed='10' />
    <vehicle id='W_S_248' type='standard_car' route='W_S' depart='441.0' departLane='random' departSpeed='10' />
    <vehicle id='N_S_249' type='standard_car' route='N_S' depart='441.0' departLane='random' departSpeed='10' />
    <vehicle id='N_S_250' type='standard_car' route='N_S' depart='442.0' departLane='random' departSpeed='10' />
    <vehicle id='W_E_251' type='standard_car' route='W_E' depart='443.0' departLane='random' departSpeed='10' />
    <vehicle id='W_E_252' type='standard_car' route='W_E' depart='444.0' departLane='random' departSpeed='10' />
    <vehicle id='W_S_253' type='standard_car' route='W_S' depart='444.0' departLane='random' departSpeed='10' />
    <vehicle id='E_W_254' type='standard_car' route='E_W' depart='444.0' departLane='random' departSpeed='10' />
    <vehicle id='S_N_255' type='standard_car' route='S_N' depart='448.0' departLane='random' departSpeed='10' />
    <vehicle id='N_W_256' type='standard_car' route='N_W' depart='449.0' departLane='random' departSpeed='10' />
    <vehicle id='N_W_257' type='standard_car' route='N_W' depart='450.0' departLane='random' departSpeed='10' />
    <vehicle id='N_W_258' type='standard_car' route='N_W' depart='451.0' departLane='random' departSpeed='10' />
    <vehicle id='N_W_259' type='standard_car' route='N_W' depart='452.0' departLane='random' departSpeed='10' />