<routes>
    <vType id="standard_car" length="5.0" maxSpeed="15" minGap="2.5" accel="2.0" decel="4.5" />
    <route id="N_S" edges="road_1_2_3 road_1_1_3"/>
    <route id="N_E" edges="road_1_2_3 road_1_1_0"/>
    <route id="N_W" edges="road_1_2_3 road_1_1_2"/>
    <route id="S_W" edges="road_1_0_1 road_1_1_2"/>
    <route id="S_E" edges="road_1_0_1 road_1_1_0"/>
    <route id="S_N" edges="road_1_0_1 road_1_1_1"/>

    <route id="W_E" edges="road_0_1_0 road_1_1_0"/>
    <route id="W_N" edges="road_0_1_0 road_1_1_1"/>
    <route id="W_S" edges="road_0_1_0 road_1_1_3"/>
    <route id="E_N" edges="road_2_1_2 road_1_1_1"/>
    <route id="E_S" edges="road_2_1_2 road_1_1_3"/>
    <route id="E_W" edges="road_2_1_2 road_1_1_2"/>
            
    <vehicle id='N_W_0' type='standard_car' route='N_W' depart='30.0' departLane='random' departSpeed='10' />
    <vehicle id='E_W_1' type='standard_car' route='E_W' depart='30.0' departLane='random' departSpeed='10' />
    <vehicle id='S_N_2' type='standard_car' route='S_N' depart='33.0' departLane='random' departSpeed='10' />
    <vehicle id='S_N_3' type='standard_car' route='S_N' depart='37.0' departLane='random' departSpeed='10' />
    <vehicle id='E_N_4' type='standard_car' route='E_N' depart='58.0' departLane='random' departSpeed='10' />
    <vehicle id='E_W_5' type='standard_car' route='E_W' depart='59.0' departLane='random' departSpeed='10' />
    <vehicle id='N_S_6' type='standard_car' route='N_S' depart='62.0' departLane='random' departSpeed='10' />
    <vehicle id='N_W_7' type='standard_car' route='N_W' depart='66.0' departLane='random' departSpeed='10' />
    <vehicle id='E_N_8' type='standard_car' route='E_N' depart='73.0' departLane='random' departSpeed='10' />
    <vehicle id='N_S_9' type='standard_car' route='N_S' depart='74.0' departLane='random' departSpeed='10' />
    <vehicle id='N_W_10' type='standard_car' route='N_W' depart='74.0' departLane='random' departSpeed='10' />
    <vehicle id='E_W_11' type='standard_car' route='E_W' depart='77.0' departLane='random' departSpeed='10' />
    <vehicle id='W_E_12' type='standard_car' route='W_E' depart='78.0' departLane='random' departSpeed='10' />
    <vehicle id='N_W_13' type='standard_car' route='N_W' depart='82.0' departLane='random' departSpeed='10' />
    <vehicle id='S_N_14' type='standard_car' route='S_N' depart='105.0' departLane='random' departSpeed='10' />
    <vehicle id='S_E_15' type='standard_car' route='S_E' depart='121.0' departLane='random' departSpeed='10' />
    <vehicle id='S_N_16' type='standard_car' route='S_N' depart='125.0' departLane='random' departSpeed='10' />
    <vehicle id='N_S_17' type='standard_car' route='N_S' depart='127.0' departLane='random' departSpeed='10' />
    <vehicle id='W_E_18' type='standard_car' route='W_E' depart='135.0' departLane='random' departSpeed='10' />
    <vehicle id='N_W_19' type='standard_car' route='N_W' depart='135.0' departLane='random' departSpeed='10' />
    <vehicle id='W_E_20' type='standard_car' route='W_E' depart='141.0' departLane='random' departSpeed='10' />
    <vehicle id='S_N_21' type='standard_car' route='S_N' depart='143.0' departLane='random' departSpeed='10' />
    <vehicle id='W_S_22' type='standard_car' route='W_S' depart='145.0' departLane='random' departSpeed='10' />
    <vehicle id='S_N_23' type='standard_car' route='S_N' depart='146.0' departLane='random' departSpeed='10' />
    <vehicle id='E_N_24' type='standard_car' route='E_N' depart='152.0' departLane='random' departSpeed='10' />
    <vehicle id='E_N_25' type='standard_car' route='E_N' depart='158.0' departLane='random' departSpeed='10' />
    <vehicle id='W_S_26' type='standard_car' route='W_S' depart='163.0' departLane='random' departSpeed='10' />
    <vehicle id='S_E_27' type='standard_car' route='S_E' depart='164.0' departLane='random' departSpeed='10' />
    <vehicle id='S_N_28' type='standard_car' route='S_N' depart='168.0' departLane='random' departSpeed='10' />
    <vehicle id='W_S_29' type='standard_car' route='W_S' depart='168.0' departLane='random' departSpeed='10' />
    <vehicle id='S_N_30' type='standard_car' route='S_N' depart='170.0' departLane='random' departSpeed='10' />
    <vehicle id='W_E_31' type='standard_car' route='W_E' depart='172.0' departLane='random' departSpeed='10' />
    <vehicle id='N_W_32' type='standard_car' route='N_W' depart='174.0' departLane='random' departSpeed='10' />
    <vehicle id='W_S_33' type='standard_car' route='W_S' depart='177.0' departLane='random' departSpeed='10' />
    <vehicle id='E_W_34' type='standard_car' route='E_W' depart='177.0' departLane='random' departSpeed='10' />
    <vehicle id='E_N_35' type='standard_car' route='E_N' depart='181.0' departLane='random' departSpeed='10' />
    <vehicle id='W_S_36' type='standard_car' route='W_S' depart='184.0' departLane='random' departSpeed='10' />
    <vehicle id='S_N_37' type='standard_car' route='S_N' depart='185.0' departLane='random' departSpeed='10' />
    <vehicle id='E_N_38' type='standard_car' route='E_N' depart='187.0' departLane='random' departSpeed='10' />
    <vehicle id='E_N_39' type='standard_car' route='E_N' depart='192.0' departLane='random' departSpeed='10' />
    <vehicle id='W_S_40' type='standard_car' route='W_S' depart='195.0' departLane='random' departSpeed='10' />
    <vehicle id='E_W_41' type='standard_car' route='E_W' depart='197.0' departLane='random' departSpeed='10' />
    <vehicle id='W_E_42' type='standard_car' route='W_E' depart='199.0' departLane='random' departSpeed='10' />
    <vehicle id='N_W_43' type='standard_car' route='N_W' depart='200.0' departLane='random' departSpeed='10' />
    <vehicle id='S_N_44' type='standard_car' route='S_N' depart='202.0' departLane='random' departSpeed='10' />
    <vehicle id='W_E_45' type='standard_car' route='W_E' depart='202.0' departLane='random' departSpeed='10' />
    <vehicle id='E_N_46' type='standard_car' route='E_N' depart='202.0' departLane='random' departSpeed='10' />
    <vehicle id='E_N_47' type='standard_car' route='E_N' depart='207.0' departLane='random' departSpeed='10' />
    <vehicle id='W_E_48' type='standard_car' route='W_E' depart='209.0' departLane='random' departSpeed='10' />
    <vehicle id='E_N_49' type='standard_car' route='E_N' depart='215.0' departLane='random' departSpeed='10' />
    <vehicle id='S_E_50' type='standard_car' route='S_E' depart='216.0' departLane='random' departSpeed='10' />
    <vehicle id='N_S_51' type='standard_car' route='N_S' depart='217.0' departLane='random' departSpeed='10' />
    <vehicle id='N_S_52' type='standard_car' route='N_S' depart='219.0' departLane='random' departSpeed='10' />
    <vehicle id='S_E_53' type='standard_car' route='S_E' depart='220.0' departLane='random' departSpeed='10' />
    <vehicle id='N_S_54' type='standard_car' route='N_S' depart='220.0' departLane='random' departSpeed='10' />
    <vehicle id='W_S_55' type='standard_car' route='W_S' depart='225.0' departLane='random' departSpeed='10' />
    <vehicle id='W_S_56' type='standard_car' route='W_S' depart='226.0' departLane='random' departSpeed='10' />
    <vehicle id='S_N_57' type='standard_car' route='S_N' depart='226.0' departLane='random' departSpeed='10' />
    <vehicle id='N_S_58' type='standard_car' route='N_S' depart='230.0' departLane='random' departSpeed='10' />
    <vehicle id='W_S_59' type='standard_car' route='W_S' depart='232.0' departLane='random' departSpeed='10' />
    <vehicle id='W_E_60' type='standard_car' route='W_E' depart='234.0' departLane='random' departSpeed='10' />
    <vehicle id='E_N_61' type='standard_car' route='E_N' depart='236.0' departLane='random' departSpeed='10' />
    <vehicle id='S_E_62' type='standard_car' route='S_E' depart='239.0' departLane='random' departSpeed='10' />
    <vehicle id='W_E_63' type='standard_car' route='W_E' depart='240.0' departLane='random' departSpeed='10' />
    <vehicle id='W_E_64' type='standard_car' route='W_E' depart='240.0' departLane='random' departSpeed='10' />
    <vehicle id='N_S_65' type='standard_car' route='N_S' depart='241.0' departLane='random' departSpeed='10' />
    <vehicle id='N_S_66' type='standard_car' route='N_S' depart='246.0' departLane='random' departSpeed='10' />
    <vehicle id='W_S_67' type='standard_car' route='W_S' depart='248.0' departLane='random' departSpeed='10' />
    <vehicle id='W_E_68' type='standard_car' route='W_E' depart='253.0' departLane='random' departSpeed='10' />
    <vehicle id='S_N_69' type='standard_car' route='S_N' depart='253.0' departLane='random' departSpeed='10' />
    <vehicle id='E_W_70' type='standard_car' route='E_W' depart='255.0' departLane='random' departSpeed='10' />
    <vehicle id='N_S_71' type='standard_car' route='N_S' depart='256.0' departLane='random' departSpeed='10' />
    <vehicle id='W_E_72' type='standard_car' route='W_E' depart='258.0' departLane='random' departSpeed='10' />
    <vehicle id='S_E_73' type='standard_car' route='S_E' depart='258.0' departLane='random' departSpeed='10' />
    <vehicle id='W_E_74' type='standard_car' route='W_E' depart='262.0' departLane='random' departSpeed='10' />
    <vehicle id='W_E_75' type='standard_car' route='W_E' depart='262.0' departLane='random' departSpeed='10' />
    <vehicle id='N_S_76' type='standard_car' route='N_S' depart='262.0' departLane='random' departSpeed='10' />
    <vehicle id='W_E_77' type='standard_car' route='W_E' depart='265.0' departLane='random' departSpeed='10' />
    <vehicle id='S_E_78' type='standard_car' route='S_E' depart='267.0' departLane='random' departSpeed='10' />
    <vehicle id='E_N_79' type='standard_car' route='E_N' depart='268.0' departLane='random' departSpeed='10' />
    <vehicle id='E_N_80' type='standard_car' route='E_N' depart='268.0' departLane='random' departSpeed='10' />
    <vehicle id='E_W_81' type='standard_car' route='E_W' depart='269.0' departLane='random' departSpeed='10' />
    <vehicle id='E_W_82' type='standard_car' route='E_W' depart='273.0' departLane='random' departSpeed='10' />
    <vehicle id='N_S_83' type='standard_car' route='N_S' depart='273.0' departLane='random' departSpeed='10' />
    <vehicle id='S_N_84' type='standard_car' route='S_N' depart='275.0' departLane='random' departSpeed='10' />
    <vehicle id='N_W_85' type='standard_car' route='N_W' depart='277.0' departLane='random' departSpeed='10' />
    <vehicle id='E_W_86' type='standard_car' route='E_W' depart='277.0' departLane='random' departSpeed='10' />
    <vehicle id='W_E_87' type='standard_car' route='W_E' depart='278.0' departLane='random' departSpeed='10' />
    <vehicle id='E_W_88' type='standard_car' route='E_W' depart='278.0' departLane='random' departSpeed='10' />
    <vehicle id='N_W_89' type='standard_car' route='N_W' depart='280.0' departLane='random' departSpeed='10' />
    <vehicle id='E_N_90' type='standard_car' route='E_N' depart='280.0' departLane='random' departSpeed='10' />
    <vehicle id='S_N_91' type='standard_car' route='S_N' depart='286.0' departLane='random' departSpeed='10' />
    <vehicle id='E_W_92' type='standard_car' route='E_W' depart='286.0' departLane='random' departSpeed='10' />
    <vehicle id='W_S_93' type='standard_car' route='W_S' depart='287.0' departLane='random' departSpeed='10' />
    <vehicle id='W_S_94' type='standard_car' route='W_S' depart='291.0' departLane='random' departSpeed='10' />
    <vehicle id='W_E_95' type='standard_car' route='W_E' depart='291.0' departLane='random' departSpeed='10' />
    <vehicle id='W_E_96' type='standard_car' route='W_E' depart='291.0' departLane='random' departSpeed='10' />
    <vehicle id='S_N_97' type='standard_car' route='S_N' depart='292.0' departLane='random' departSpeed='10' />
    <vehicle id='S_E_98' type='standard_car' route='S_E' depart='292.0' departLane='random' departSpeed='10' />
    <vehicle id='W_S_99' type='standard_car' route='W_S' depart='294.0' departLane='random' departSpeed='10' />
    <vehicle id='N_S_100' type='standard_car' route='N_S' depart='294.0' departLane='random' departSpeed='10' />
    <vehicle id='W_E_101' type='standard_car' route='W_E' depart='295.0' departLane='random' departSpeed='10' />
    <vehicle id='S_N_102' type='standard_car' route='S_N' depart='298.0' departLane='random' departSpeed='10' />
    <vehicle id='N_W_103' type='standard_car' route='N_W' depart='298.0' departLane='random' departSpeed='10' />
    <vehicle id='N_W_104' type='standard_car' route='N_W' depart='300.0' departLane='random' departSpeed='10' />
    <vehicle id='E_W_105' type='standard_car' route='E_W' depart='300.0' departLane='random' departSpeed='10' />
    <vehicle id='E_W_106' type='standard_car' route='E_W' depart='302.0' departLane='random' departSpeed='10' />
    <vehicle id='E_W_107' type='standard_car' route='E_W' depart='302.0' departLane='random' departSpeed='10' />
    <vehicle id='S_E_108' type='standard_car' route='S_E' depart='309.0' departLane='random' departSpeed='10' />
    <vehicle id='E_W_109' type='standard_car' route='E_W' depart='309.0' departLane='random' departSpeed='10' />
    <vehicle id='W_E_110' type='standard_car' route='W_E' depart='310.0' departLane='random' departSpeed='10' />
    <vehicle id='E_N_111' type='standard_car' route='E_N' depart='310.0' departLane='random' departSpeed='10' />
    <vehicle id='E_N_112' type='standard_car' route='E_N' depart='313.0' departLane='random' departSpeed='10' />
    <vehicle id='E_W_113' type='standard_car' route='E_W' depart='315.0' departLane='random' departSpeed='10' />
    <vehicle id='E_W_114' type='standard_car' route='E_W' depart='318.0' departLane='random' departSpeed='10' />
    <vehicle id='W_S_115' type='standard_car' route='W_S' depart='319.0' departLane='random' departSpeed='10' />
    <vehicle id='E_N_116' type='standard_car' route='E_N' depart='319.0' departLane='random' departSpeed='10' />
    <vehicle id='S_N_117' type='standard_car' route='S_N' depart='320.0' departLane='random' departSpeed='10' />
    <vehicle id='N_S_118' type='standard_car' route='N_S' depart='320.0' departLane='random' departSpeed='10' />
    <vehicle id='W_E_119' type='standard_car' route='W_E' depart='322.0' departLane='random' departSpeed='10' />
    <vehicle id='W_E_120' type='standard_car' route='W_E' depart='323.0' departLane='random' departSpeed='10' />
    <vehicle id='W_E_121' type='standard_car' route='W_E' depart='323.0' departLane='random' departSpeed='10' />
    <vehicle id='E_W_122' type='standard_car' route='E_W' depart='324.0' departLane='random' departSpeed='10' />
    <vehicle id='E_N_123' type='standard_car' route='E_N' depart='328.0' departLane='random' departSpeed='10' />
    <vehicle id='N_S_124' type='standard_car' route='N_S' depart='331.0' departLane='random' departSpeed='10' />
    <vehicle id='S_E_125' type='standard_car' route='S_E' depart='336.0' departLane='random' departSpeed='10' />
    <vehicle id='E_W_126' type='standard_car' route='E_W' depart='338.0' departLane='random' departSpeed='10' />
    <vehicle id='W_E_127' type='standard_car' route='W_E' depart='339.0' departLane='random' departSpeed='10' />
    <vehicle id='W_E_128' type='standard_car' route='W_E' depart='343.0' departLane='random' departSpeed='10' />
    <vehicle id='N_S_129' type='standard_car' route='N_S' depart='344.0' departLane='random' departSpeed='10' />
    <vehicle id='E_W_130' type='standard_car' route='E_W' depart='346.0' departLane='random' departSpeed='10' />
    <vehicle id='W_E_131' type='standard_car' route='W_E' depart='348.0' departLane='random' departSpeed='10' />
    <vehicle id='E_W_132' type='standard_car' route='E_W' depart='348.0' departLane='random' departSpeed='10' />
    <vehicle id='E_N_133' type='standard_car' route='E_N' depart='349.0' departLane='random' departSpeed='10' />
    <vehicle id='W_S_134' type='standard_car' route='W_S' depart='349.0' departLane='random' departSpeed='10' />
    <vehicle id='S_E_135' type='standard_car' route='S_E' depart='353.0' departLane='random' departSpeed='10' />
    <vehicle id='E_N_136' type='standard_car' route='E_N' depart='353.0' departLane='random' departSpeed='10' />
    <vehicle id='E_N_137' type='standard_car' route='E_N' depart='360.0' departLane='random' departSpeed='10' />
    <vehicle id='W_E_138' type='standard_car' route='W_E' depart='360.0' departLane='random' departSpeed='10' />
    <vehicle id='S_N_139' type='standard_car' route='S_N' depart='360.0' departLane='random' departSpeed='10' />
    <vehicle id='E_N_140' type='standard_car' route='E_N' depart='361.0' departLane='random' departSpeed='10' />
    <vehicle id='W_S_141' type='standard_car' route='W_S' depart='362.0' departLane='random' departSpeed='10' />
    <vehicle id='S_E_142' type='standard_car' route='S_E' depart='363.0' departLane='random' departSpeed='10' />
    <vehicle id='S_N_143' type='standard_car' route='S_N' depart='363.0' departLane='random' departSpeed='10' />
    <vehicle id='E_W_144' type='standard_car' route='E_W' depart='365.0' departLane='random' departSpeed='10' />
    <vehicle id='S_N_145' type='standard_car' route='S_N' depart='365.0' departLane='random' departSpeed='10' />
    <vehicle id='W_E_146' type='standard_car' route='W_E' depart='367.0' departLane='random' departSpeed='10' />
    <vehicle id='S_N_147' type='standard_car' route='S_N' depart='368.0' departLane='random' departSpeed='10' />
    <vehicle id='N_S_148' type='standard_car' route='N_S' depart='369.0' departLane='random' departSpeed='10' />
    <vehicle id='N_S_149' type='standard_car' route='N_S' depart='370.0' departLane='random' departSpeed='10' />
    <vehicle id='E_N_150' type='standard_car' route='E_N' depart='370.0' departLane='random' departSpeed='10' />
    <vehicle id='W_S_151' type='standard_car' route='W_S' depart='372.0' departLane='random' departSpeed='10' />
    <vehicle id='E_N_152' type='standard_car' route='E_N' depart='374.0' departLane='random' departSpeed='10' />
    <vehicle id='E_W_153' type='standard_car' route='E_W' depart='377.0' departLane='random' departSpeed='10' />
    <vehicle id='N_S_154' type='standard_car' route='N_S' depart='377.0' departLane='random' departSpeed='10' />
    <vehicle id='W_E_155' type='standard_car' route='W_E' depart='377.0' departLane='random' departSpeed='10' />
    <vehicle id='E_W_156' type='standard_car' route='E_W' depart='378.0' departLane='random' departSpeed='10' />
    <vehicle id='S_N_157' type='standard_car' route='S_N' depart='379.0' departLane='random' departSpeed='10' />
    <vehicle id='E_N_158' type='standard_car' route='E_N' depart='381.0' departLane='random' departSpeed='10' />
    <vehicle id='E_N_159' type='standard_car' route='E_N' depart='381.0' departLane='random' departSpeed='10' />
    <vehicle id='N_S_160' type='standard_car' route='N_S' depart='384.0' departLane='random' departSpeed='10' />
    <vehicle id='E_N_161' type='standard_car' route='E_N' depart='385.0' departLane='random' departSpeed='10' />
    <vehicle id='E_N_162' type='standard_car' route='E_N' depart='385.0' departLane='random' departSpeed='10' />
    <vehicle id='S_E_163' type='standard_car' route='S_E' depart='388.0' departLane='random' departSpeed='10' />
    <vehicle id='E_W_164' type='standard_car' route='E_W' depart='389.0' departLane='random' departSpeed='10' />
    <vehicle id='W_S_165' type='standard_car' route='W_S' depart='390.0' departLane='random' departSpeed='10' />
    <vehicle id='N_W_166' type='standard_car' route='N_W' depart='390.0' departLane='random' departSpeed='10' />
    <vehicle id='W_E_167' type='standard_car' route='W_E' depart='391.0' departLane='random' departSpeed='10' />
    <vehicle id='E_W_168' type='standard_car' route='E_W' depart='391.0' departLane='random' departSpeed='10' />
    <vehicle id='N_S_169' type='standard_car' route='N_S' depart='392.0' departLane='random' departSpeed='10' />
    <vehicle id='S_N_170' type='standard_car' route='S_N' depart='392.0' departLane='random' departSpeed='10' />
    <vehicle id='S_E_171' type='standard_car' route='S_E' depart='394.0' departLane='random' departSpeed='10' />
    <vehicle id='E_W_172' type='standard_car' route='E_W' depart='396.0' departLane='random' departSpeed='10' />
    <vehicle id='S_N_173' type='standard_car' route='S_N' depart='399.0' departLane='random' departSpeed='10' />
    <vehicle id='E_N_174' type='standard_car' route='E_N' depart='399.0' departLane='random' departSpeed='10' />
    <vehicle id='S_N_175' type='standard_car' route='S_N' depart='401.0' departLane='random' departSpeed='10' />
    <vehicle id='N_S_176' type='standard_car' route='N_S' depart='402.0' departLane='random' departSpeed='10' />
    <vehicle id='S_E_177' type='standard_car' route='S_E' depart='402.0' departLane='random' departSpeed='10' />
    <vehicle id='E_W_178' type='standard_car' route='E_W' depart='403.0' departLane='random' departSpeed='10' />
    <vehicle id='N_W_179' type='standard_car' route='N_W' depart='403.0' departLane='random' departSpeed='10' />
    <vehicle id='N_W_180' type='standard_car' route='N_W' depart='404.0' departLane='random' departSpeed='10' />
    <vehicle id='N_S_181' type='standard_car' route='N_S' depart='405.0' departLane='random' departSpeed='10' />
    <vehicle id='W_E_182' type='standard_car' route='W_E' depart='406.0' departLane='random' departSpeed='10' />
    <vehicle id='E_W_183' type='standard_car' route='E_W' depart='406.0' departLane='random' departSpeed='10' />
    <vehicle id='N_S_184' type='standard_car' route='N_S' depart='407.0' departLane='random' departSpeed='10' />
    <vehicle id='N_S_185' type='standard_car' route='N_S' depart='408.0' departLane='random' departSpeed='10' />
    <vehicle id='S_N_186' type='standard_car' route='S_N' depart='409.0' departLane='random' departSpeed='10' />
    <vehicle id='N_S_187' type='standard_car' route='N_S' depart='409.0' departLane='random' departSpeed='10' />
    <vehicle id='N_S_188' type='standard_car' route='N_S' depart='410.0' departLane='random' departSpeed='10' />
    <vehicle id='W_E_189' type='standard_car' route='W_E' depart='411.0' departLane='random' departSpeed='10' />
    <vehicle id='E_N_190' type='standard_car' route='E_N' depart='412.0' departLane='random' departSpeed='10' />
    <vehicle id='S_N_191' type='standard_car' route='S_N' depart='412.0' departLane='random' departSpeed='10' />
    <vehicle id='N_W_192' type='standard_car' route='N_W' depart='413.0' departLane='random' departSpeed='10' />
    <vehicle id='N_W_193' type='standard_car' route='N_W' depart='414.0' departLane='random' departSpeed='10' />
    <vehicle id='E_W_194' type='standard_car' route='E_W' depart='415.0' departLane='random' departSpeed='10' />
    <vehicle id='S_N_195' type='standard_car' route='S_N' depart='415.0' departLane='random' departSpeed='10' />
    <vehicle id='S_N_196' type='standard_car' route='S_N' depart='417.0' departLane='random' departSpeed='10' />
    <vehicle id='W_E_197' type='standard_car' route='W_E' depart='419.0' departLane='random' departSpeed='10' />
    <vehicle id='W_S_198' type='standard_car' route='W_S' depart='419.0' departLane='random' departSpeed='10' />
    <vehicle id='S_E_199' type='standard_car' route='S_E' depart='424.0' departLane='random' departSpeed='10' />
    <vehicle id='S_E_200' type='standard_car' route='S_E' depart='425.0' departLane='random' departSpeed='10' />
    <vehicle id='N_S_201' type='standard_car' route='N_S' depart='426.0' departLane='random' departSpeed='10' />
    <vehicle id='N_S_202' type='standard_car' route='N_S' depart='428.0' departLane='random' departSpeed='10' />
    <vehicle id='W_E_203' type='standard_car' route='W_E' depart='428.0' departLane='random' departSpeed='10' />
    <vehicle id='W_E_204' type='standard_car' route='W_E' depart='429.0' departLane='random' departSpeed='10' />
    <vehicle id='E_W_205' type='standard_car' route='E_W' depart='430.0' departLane='random' departSpeed='10' />
    <vehicle id='E_N_206' type='standard_car' route='E_N' depart='430.0' departLane='random' departSpeed='10' />
    <vehicle id='N_W_207' type='standard_car' route='N_W' depart='431.0' departLane='random' departSpeed='10' />
    <vehicle id='E_W_208' type='standard_car' route='E_W' depart='431.0' departLane='random' departSpeed='10' />
    <vehicle id='S_E_209' type='standard_car' route='S_E' depart='432.0' departLane='random' departSpeed='10' />
    <vehicle id='S_E_210' type='standard_car' route='S_E' depart='433.0' departLane='random' departSpeed='10' />
    <vehicle id='W_E_211' type='standard_car' route='W_E' depart='435.0' departLane='random' departSpeed='10' />
    <vehicle id='N_W_212' type='standard_car' route='N_W' depart='435.0' departLane='random' departSpeed='10' />
    <vehicle id='S_N_213' type='standard_car' route='S_N' depart='435.0' departLane='random' departSpeed='10' />
    <vehicle id='N_S_214' type='standard_car' route='N_S' depart='436.0' departLane='random' departSpeed='10' />
    <vehicle id='S_E_215' type='standard_car' route='S_E' depart='439.0' departLane='random' departSpeed='10' />
    <vehicle id='W_E_216' type='standard_car' route='W_E' depart='441.0' departLane='random' departSpeed='10' />
    <vehicle id='S_E_217' type='standard_car' route='S_E' depart='441.0' departLane='random' departSpeed='10' />
    <vehicle id='E_W_218' type='standard_car' route='E_W' depart='442.0' departLane='random' departSpeed='10' />
    <vehicle id='W_E_219' type='standard_car' route='W_E' depart='444.0' departLane='random' departSpeed='10' />
    <vehicle id='W_S_220' type='standard_car' route='W_S' depart='445.0' departLane='random' departSpeed='10' />
    <vehicle id='N_W_221' type='standard_car' route='N_W' depart='445.0' departLane='random' departSpeed='10' />
    <vehicle id='N_S_222' type='standard_car' route='N_S' depart='446.0' departLane='random' departSpeed='10' />
    <vehicle id='N_S_223' type='standard_car' route='N_S' depart='447.0' departLane='random' departSpeed='10' />
    <vehicle id='E_W_224' type='standard_car' route='E_W' depart='449.0' departLane='random' departSpeed='10' />
    <vehicle id='E_W_225' type='standard_car' route='E_W' depart='452.0' departLane='random' departSpeed='10' />
    <vehicle id='W_S_226' type='standard_car' route='W_S' depart='452.0' departLane='random' departSpeed='10' />
    <vehicle id='S_E_227' type='standard_car' route='S_E' depart='455.0' departLane='random' departSpeed='10' />
    <vehicle id='S_E_228' type='standard_car' route='S_E' depart='455.0' departLane='random' departSpeed='10' />
    <vehicle id='W_E_229' type='standard_car' route='W_E' depart='455.0' departLane='random' departSpeed='10' />
    <vehicle id='W_S_230' type='standard_car' route='W_S' depart='458.0' departLane='random' departSpeed='10' />
    <vehicle id='W_S_231' type='standard_car' route='W_S' depart='458.0' departLane='random' departSpeed='10' />
    <vehicle id='E_N_232' type='standard_car' route='E_N' depart='459.0' departLane='random' departSpeed='10' />
    <vehicle id='W_S_233' type='standard_car' route='W_S' depart='459.0' departLane='random' departSpeed='10' />
    <vehicle id='E_N_234' type='standard_car' route='E_N' depart='464.0' departLane='random' departSpeed='10' />
    <vehicle id='W_S_235' type='standard_car' route='W_S' depart='467.0' departLane='random' departSpeed='10' />
    <vehicle id='W_E_236' type='standard_car' route='W_E' depart='468.0' departLane='random' departSpeed='10' />
    <vehicle id='E_N_237' type='standard_car' route='E_N' depart='471.0' departLane='random' departSpeed='10' />
    <vehicle id='W_E_238' type='standard_car' route='W_E' depart='473.0' departLane='random' departSpeed='10' />
    <vehicle id='E_N_239' type='standard_car' route='E_N' depart='473.0' departLane='random' departSpeed='10' />
    <vehicle id='W_E_240' type='standard_car' route='W_E' depart='473.0' departLane='random' departSpeed='10' />
    <vehicle id='W_E_241' type='standard_car' route='W_E' depart='474.0' departLane='random' departSpeed='10' />
    <vehicle id='S_N_242' type='standard_car' route='S_N' depart='475.0' departLane='random' departSpeed='10' />
    <vehicle id='S_N_243' type='standard_car' route='S_N' depart='475.0' departLane='random' departSpeed='10' />
    <vehicle id='E_W_244' type='standard_car' route='E_W' depart='477.0' departLane='random' departSpeed='10' />
    <vehicle id='E_W_245' type='standard_car' route='E_W' depart='477.0' departLane='random' departSpeed='10' />
    <vehicle id='W_S_246' type='standard_car' route='W_S' depart='479.0' departLane='random' departSpeed='10' />
    <vehicle id='W_S_247' type='standard_car' route='W_S' depart='479.0' departLane='random' departSpeed='10' />
    <vehicle id='N_S_248' type='standard_car' route='N_S' depart='480.0' departLane='random' departSpeed='10' />
    <vehicle id='N_W_249' type='standard_car' route='N_W' depart='480.0' departLane='random' departSpeed='10' />
    <vehicle id='W_S_250' type='standard_car' route='W_S' depart='481.0' departLane='random' departSpeed='10' />
    <vehicle id='S_N_251' type='standard_car' route='S_N' depart='481.0' departLane='random' departSpeed='10' />
    <vehicle id='W_S_252' type='standard_car' route='W_S' depart='484.0' departLane='random' departSpeed='10' />
    <vehicle id='S_N_253' type='standard_car' route='S_N' depart='485.0' departLane='random' departSpeed='10' />
    <vehicle id='S_N_254' type='standard_car' route='S_N' depart='486.0' departLane='random' departSpeed='10' />
    <vehicle id='N_S_255' type='standard_car' route='N_S' depart='488.0' departLane='random' departSpeed='10' />
    <vehicle id='W_S_256' type='standard_car' route='W_S' depart='491.0' departLane='random' departSpeed='10' />
    <vehicle id='W_S_257' type='standard_car' route='W_S' depart='491.0' departLane='random' departSpeed='10' />
    <vehicle id='N_W_258' type='standard_car' route='N_W' depart='492.0' departLane='random' departSpeed='10' />
    <vehicle id='S_N_259' type='standard_car' route='S_N' depart='492.0' departLane='random' departSpeed='10' />