<routes>
    <vType id="standard_car" length="5.0" maxSpeed="15" minGap="2.5" accel="2.0" decel="4.5" />
    <route id="N_S" edges="road_1_2_3 road_1_1_3"/>
    <route id="N_E" edges="road_1_2_3 road_1_1_0"/>
    <route id="N_W" edges="road_1_2_3 road_1_1_2"/>
    <route id="S_W" edges="road_1_0_1 road_1_1_2"/>
    <route id="S_E" edges="road_1_0_1 road_1_1_0"/>
    <route id="S_N" edges="road_1_0_1 road_1_1_1"/>

    <route id="W_E" edges="road_0_1_0 road_1_1_0"/>
    <route id="W_N" edges="road_0_1_0 road_1_1_1"/>
    <route id="W_S" edges="road_0_1_0 road_1_1_3"/>
    <route id="E_N" edges="road_2_1_2 road_1_1_1"/>
    <route id="E_S" edges="road_2_1_2 road_1_1_3"/>
    <route id="E_W" edges="road_2_1_2 road_1_1_2"/>
            
    <vehicle id='N_S_0' type='standard_car' route='N_S' depart='22.0' departLane='random' departSpeed='10' />
    <vehicle id='S_E_1' type='standard_car' route='S_E' depart='24.0' departLane='random' departSpeed='10' />
    <vehicle id='N_W_2' type='standard_car' route='N_W' depart='36.0' departLane='random' departSpeed='10' />
    <vehicle id='E_N_3' type='standard_car' route='E_N' depart='40.0' departLane='random' departSpeed='10' />
    <vehicle id='N_S_4' type='standard_car' route='N_S' depart='55.0' departLane='random' departSpeed='10' />
    <vehicle id='E_N_5' type='standard_car' route='E_N' depart='55.0' departLane='random' departSpeed='10' />
    <vehicle id='W_S_6' type='standard_car' route='W_S' depart='59.0' departLane='random' departSpeed='10' />
    <vehicle id='E_N_7' type='standard_car' route='E_N' depart='66.0' departLane='random' departSpeed='10' />
    <vehicle id='S_N_8' type='standard_car' route='S_N' depart='67.0' departLane='random' departSpeed='10' />
    <vehicle id='E_N_9' type='standard_car' route='E_N' depart='71.0' departLane='random' departSpeed='10' />
    <vehicle id='N_S_10' type='standard_car' route='N_S' depart='82.0' departLane='random' departSpeed='10' />
    <vehicle id='S_N_11' type='standard_car' route='S_N' depart='89.0' departLane='random' departSpeed='10' />
    <vehicle id='E_N_12' type='standard_car' route='E_N' depart='90.0' departLane='random' departSpeed='10' />
    <vehicle id='N_W_13' type='standard_car' route='N_W' depart='90.0' departLane='random' departSpeed='10' />
    <vehicle id='W_E_14' type='standard_car' route='W_E' depart='92.0' departLane='random' departSpeed='10' />
    <vehicle id='N_W_15' type='standard_car' route='N_W' depart='93.0' departLane='random' departSpeed='10' />
    <vehicle id='W_S_16' type='standard_car' route='W_S' depart='106.0' departLane='random' departSpeed='10' />
    <vehicle id='W_E_17' type='standard_car' route='W_E' depart='107.0' departLane='random' departSpeed='10' />
    <vehicle id='S_E_18' type='standard_car' route='S_E' depart='108.0' departLane='random' departSpeed='10' />
    <vehicle id='W_S_19' type='standard_car' route='W_S' depart='119.0' departLane='random' departSpeed='10' />
    <vehicle id='E_W_20' type='standard_car' route='E_W' depart='124.0' departLane='random' departSpeed='10' />
    <vehicle id='S_N_21' type='standard_car' route='S_N' depart='125.0' departLane='random' departSpeed='10' />
    <vehicle id='S_E_22' type='standard_car' route='S_E' depart='125.0' departLane='random' departSpeed='10' />
    <vehicle id='S_N_23' type='standard_car' route='S_N' depart='128.0' departLane='random' departSpeed='10' />
    <vehicle id='E_W_24' type='standard_car' route='E_W' depart='128.0' departLane='random' departSpeed='10' />
    <vehicle id='W_E_25' type='standard_car' route='W_E' depart='130.0' departLane='random' departSpeed='10' />
    <vehicle id='E_W_26' type='standard_car' route='E_W' depart='131.0' departLane='random' departSpeed='10' />
    <vehicle id='E_N_27' type='standard_car' route='E_N' depart='132.0' departLane='random' departSpeed='10' />
    <vehicle id='N_S_28' type='standard_car' route='N_S' depart='133.0' departLane='random' departSpeed='10' />
    <vehicle id='S_N_29' type='standard_car' route='S_N' depart='133.0' departLane='random' departSpeed='10' />
    <vehicle id='E_N_30' type='standard_car' route='E_N' depart='134.0' departLane='random' departSpeed='10' />
    <vehicle id='S_N_31' type='standard_car' route='S_N' depart='136.0' departLane='random' departSpeed='10' />
    <vehicle id='E_W_32' type='standard_car' route='E_W' depart='138.0' departLane='random' departSpeed='10' />
    <vehicle id='N_S_33' type='standard_car' route='N_S' depart='140.0' departLane='random' departSpeed='10' />
    <vehicle id='S_N_34' type='standard_car' route='S_N' depart='143.0' departLane='random' departSpeed='10' />
    <vehicle id='W_S_35' type='standard_car' route='W_S' depart='145.0' departLane='random' departSpeed='10' />
    <vehicle id='W_S_36' type='standard_car' route='W_S' depart='145.0' departLane='random' departSpeed='10' />
    <vehicle id='N_W_37' type='standard_car' route='N_W' depart='147.0' departLane='random' departSpeed='10' />
    <vehicle id='W_E_38' type='standard_car' route='W_E' depart='153.0' departLane='random' departSpeed='10' />
    <vehicle id='S_N_39' type='standard_car' route='S_N' depart='154.0' departLane='random' departSpeed='10' />
    <vehicle id='E_W_40' type='standard_car' route='E_W' depart='155.0' departLane='random' departSpeed='10' />
    <vehicle id='N_S_41' type='standard_car' route='N_S' depart='155.0' departLane='random' departSpeed='10' />
    <vehicle id='W_E_42' type='standard_car' route='W_E' depart='158.0' departLane='random' departSpeed='10' />
    <vehicle id='W_E_43' type='standard_car' route='W_E' depart='159.0' departLane='random' departSpeed='10' />
    <vehicle id='W_S_44' type='standard_car' route='W_S' depart='160.0' departLane='random' departSpeed='10' />
    <vehicle id='S_E_45' type='standard_car' route='S_E' depart='161.0' departLane='random' departSpeed='10' />
    <vehicle id='E_N_46' type='standard_car' route='E_N' depart='162.0' departLane='random' departSpeed='10' />
    <vehicle id='E_W_47' type='standard_car' route='E_W' depart='163.0' departLane='random' departSpeed='10' />
    <vehicle id='N_S_48' type='standard_car' route='N_S' depart='165.0' departLane='random' departSpeed='10' />
    <vehicle id='N_W_49' type='standard_car' route='N_W' depart='166.0' departLane='random' departSpeed='10' />
    <vehicle id='N_S_50' type='standard_car' route='N_S' depart='167.0' departLane='random' departSpeed='10' />
    <vehicle id='N_W_51' type='standard_car' route='N_W' depart='173.0' departLane='random' departSpeed='10' />
    <vehicle id='W_E_52' type='standard_car' route='W_E' depart='174.0' departLane='random' departSpeed='10' />
    <vehicle id='W_E_53' type='standard_car' route='W_E' depart='175.0' departLane='random' departSpeed='10' />
    <vehicle id='S_E_54' type='standard_car' route='S_E' depart='175.0' departLane='random' departSpeed='10' />
    <vehicle id='E_W_55' type='standard_car' route='E_W' depart='178.0' departLane='random' departSpeed='10' />
    <vehicle id='E_W_56' type='standard_car' route='E_W' depart='179.0' departLane='random' departSpeed='10' />
    <vehicle id='W_E_57' type='standard_car' route='W_E' depart='179.0' departLane='random' departSpeed='10' />
    <vehicle id='W_S_58' type='standard_car' route='W_S' depart='182.0' departLane='random' departSpeed='10' />
    <vehicle id='W_E_59' type='standard_car' route='W_E' depart='184.0' departLane='random' departSpeed='10' />
    <vehicle id='N_W_60' type='standard_car' route='N_W' depart='187.0' departLane='random' departSpeed='10' />
    <vehicle id='N_S_61' type='standard_car' route='N_S' depart='188.0' departLane='random' departSpeed='10' />
    <vehicle id='W_E_62' type='standard_car' route='W_E' depart='191.0' departLane='random' departSpeed='10' />
    <vehicle id='N_S_63' type='standard_car' route='N_S' depart='193.0' departLane='random' departSpeed='10' />
    <vehicle id='W_E_64' type='standard_car' route='W_E' depart='194.0' departLane='random' departSpeed='10' />
    <vehicle id='N_S_65' type='standard_car' route='N_S' depart='196.0' departLane='random' departSpeed='10' />
    <vehicle id='W_S_66' type='standard_car' route='W_S' depart='196.0' departLane='random' departSpeed='10' />
    <vehicle id='W_E_67' type='standard_car' route='W_E' depart='198.0' departLane='random' departSpeed='10' />
    <vehicle id='E_W_68' type='standard_car' route='E_W' depart='202.0' departLane='random' departSpeed='10' />
    <vehicle id='W_S_69' type='standard_car' route='W_S' depart='210.0' departLane='random' departSpeed='10' />
    <vehicle id='S_E_70' type='standard_car' route='S_E' depart='215.0' departLane='random' departSpeed='10' />
    <vehicle id='N_W_71' type='standard_car' route='N_W' depart='217.0' departLane='random' departSpeed='10' />
    <vehicle id='W_S_72' type='standard_car' route='W_S' depart='219.0' departLane='random' departSpeed='10' />
    <vehicle id='N_S_73' type='standard_car' route='N_S' depart='219.0' departLane='random' departSpeed='10' />
    <vehicle id='N_S_74' type='standard_car' route='N_S' depart='225.0' departLane='random' departSpeed='10' />
    <vehicle id='W_S_75' type='standard_car' route='W_S' depart='225.0' departLane='random' departSpeed='10' />
    <vehicle id='S_E_76' type='standard_car' route='S_E' depart='230.0' departLane='random' departSpeed='10' />
    <vehicle id='N_S_77' type='standard_car' route='N_S' depart='231.0' departLane='random' departSpeed='10' />
    <vehicle id='W_S_78' type='standard_car' route='W_S' depart='232.0' departLane='random' departSpeed='10' />
    <vehicle id='N_W_79' type='standard_car' route='N_W' depart='235.0' departLane='random' departSpeed='10' />
    <vehicle id='S_N_80' type='standard_car' route='S_N' depart='237.0' departLane='random' departSpeed='10' />
    <vehicle id='E_N_81' type='standard_car' route='E_N' depart='237.0' departLane='random' departSpeed='10' />
    <vehicle id='N_W_82' type='standard_car' route='N_W' depart='238.0' departLane='random' departSpeed='10' />
    <vehicle id='N_W_83' type='standard_car' route='N_W' depart='238.0' departLane='random' departSpeed='10' />
    <vehicle id='N_W_84' type='standard_car' route='N_W' depart='239.0' departLane='random' departSpeed='10' />
    <vehicle id='S_N_85' type='standard_car' route='S_N' depart='241.0' departLane='random' departSpeed='10' />
    <vehicle id='E_W_86' type='standard_car' route='E_W' depart='244.0' departLane='random' departSpeed='10' />
    <vehicle id='W_E_87' type='standard_car' route='W_E' depart='249.0' departLane='random' departSpeed='10' />
    <vehicle id='N_S_88' type='standard_car' route='N_S' depart='250.0' departLane='random' departSpeed='10' />
    <vehicle id='N_W_89' type='standard_car' route='N_W' depart='250.0' departLane='random' departSpeed='10' />
    <vehicle id='W_E_90' type='standard_car' route='W_E' depart='251.0' departLane='random' departSpeed='10' />
    <vehicle id='W_S_91' type='standard_car' route='W_S' depart='252.0' departLane='random' departSpeed='10' />
    <vehicle id='E_N_92' type='standard_car' route='E_N' depart='253.0' departLane='random' departSpeed='10' />
    <vehicle id='E_N_93' type='standard_car' route='E_N' depart='260.0' departLane='random' departSpeed='10' />
    <vehicle id='S_E_94' type='standard_car' route='S_E' depart='263.0' departLane='random' departSpeed='10' />
    <vehicle id='N_S_95' type='standard_car' route='N_S' depart='264.0' departLane='random' departSpeed='10' />
    <vehicle id='W_E_96' type='standard_car' route='W_E' depart='269.0' departLane='random' departSpeed='10' />
    <vehicle id='S_N_97' type='standard_car' route='S_N' depart='269.0' departLane='random' departSpeed='10' />
    <vehicle id='W_E_98' type='standard_car' route='W_E' depart='272.0' departLane='random' departSpeed='10' />
    <vehicle id='E_N_99' type='standard_car' route='E_N' depart='272.0' departLane='random' departSpeed='10' />
    <vehicle id='N_W_100' type='standard_car' route='N_W' depart='273.0' departLane='random' departSpeed='10' />
    <vehicle id='S_E_101' type='standard_car' route='S_E' depart='274.0' departLane='random' departSpeed='10' />
    <vehicle id='W_S_102' type='standard_car' route='W_S' depart='275.0' departLane='random' departSpeed='10' />
    <vehicle id='N_S_103' type='standard_car' route='N_S' depart='276.0' departLane='random' departSpeed='10' />
    <vehicle id='E_W_104' type='standard_car' route='E_W' depart='278.0' departLane='random' departSpeed='10' />
    <vehicle id='E_W_105' type='standard_car' route='E_W' depart='281.0' departLane='random' departSpeed='10' />
    <vehicle id='W_S_106' type='standard_car' route='W_S' depart='287.0' departLane='random' departSpeed='10' />
    <vehicle id='S_N_107' type='standard_car' route='S_N' depart='287.0' departLane='random' departSpeed='10' />
    <vehicle id='S_N_108' type='standard_car' route='S_N' depart='289.0' departLane='random' departSpeed='10' />
    <vehicle id='S_N_109' type='standard_car' route='S_N' depart='290.0' departLane='random' departSpeed='10' />
    <vehicle id='W_E_110' type='standard_car' route='W_E' depart='291.0' departLane='random' departSpeed='10' />
    <vehicle id='S_N_111' type='standard_car' route='S_N' depart='292.0' departLane='random' departSpeed='10' />
    <vehicle id='W_E_112' type='standard_car' route='W_E' depart='293.0' departLane='random' departSpeed='10' />
    <vehicle id='S_E_113' type='standard_car' route='S_E' depart='296.0' departLane='random' departSpeed='10' />
    <vehicle id='E_N_114' type='standard_car' route='E_N' depart='296.0' departLane='random' departSpeed='10' />
    <vehicle id='E_N_115' type='standard_car' route='E_N' depart='297.0' departLane='random' departSpeed='10' />
    <vehicle id='S_E_116' type='standard_car' route='S_E' depart='297.0' departLane='random' departSpeed='10' />
    <vehicle id='S_E_117' type='standard_car' route='S_E' depart='297.0' departLane='random' departSpeed='10' />
    <vehicle id='N_S_118' type='standard_car' route='N_S' depart='297.0' departLane='random' departSpeed='10' />
    <vehicle id='W_S_119' type='standard_car' route='W_S' depart='298.0' departLane='random' departSpeed='10' />
    <vehicle id='S_E_120' type='standard_car' route='S_E' depart='298.0' departLane='random' departSpeed='10' />
    <vehicle id='W_E_121' type='standard_car' route='W_E' depart='298.0' departLane='random' departSpeed='10' />
    <vehicle id='W_S_122' type='standard_car' route='W_S' depart='300.0' departLane='random' departSpeed='10' />
    <vehicle id='N_W_123' type='standard_car' route='N_W' depart='301.0' departLane='random' departSpeed='10' />
    <vehicle id='N_S_124' type='standard_car' route='N_S' depart='301.0' departLane='random' departSpeed='10' />
    <vehicle id='N_S_125' type='standard_car' route='N_S' depart='302.0' departLane='random' departSpeed='10' />
    <vehicle id='E_W_126' type='standard_car' route='E_W' depart='302.0' departLane='random' departSpeed='10' />
    <vehicle id='E_W_127' type='standard_car' route='E_W' depart='304.0' departLane='random' departSpeed='10' />
    <vehicle id='E_N_128' type='standard_car' route='E_N' depart='306.0' departLane='random' departSpeed='10' />
    <vehicle id='W_E_129' type='standard_car' route='W_E' depart='307.0' departLane='random' departSpeed='10' />
    <vehicle id='W_E_130' type='standard_car' route='W_E' depart='309.0' departLane='random' departSpeed='10' />
    <vehicle id='S_N_131' type='standard_car' route='S_N' depart='310.0' departLane='random' departSpeed='10' />
    <vehicle id='E_N_132' type='standard_car' route='E_N' depart='310.0' departLane='random' departSpeed='10' />
    <vehicle id='E_N_133' type='standard_car' route='E_N' depart='310.0' departLane='random' departSpeed='10' />
    <vehicle id='W_E_134' type='standard_car' route='W_E' depart='310.0' departLane='random' departSpeed='10' />
    <vehicle id='N_S_135' type='standard_car' route='N_S' depart='313.0' departLane='random' departSpeed='10' />
    <vehicle id='S_N_136' type='standard_car' route='S_N' depart='313.0' departLane='random' departSpeed='10' />
    <vehicle id='W_E_137' type='standard_car' route='W_E' depart='316.0' departLane='random' departSpeed='10' />
    <vehicle id='W_E_138' type='standard_car' route='W_E' depart='318.0' departLane='random' departSpeed='10' />
    <vehicle id='W_S_139' type='standard_car' route='W_S' depart='318.0' departLane='random' departSpeed='10' />
    <vehicle id='S_N_140' type='standard_car' route='S_N' depart='319.0' departLane='random' departSpeed='10' />
    <vehicle id='E_W_141' type='standard_car' route='E_W' depart='321.0' departLane='random' departSpeed='10' />
    <vehicle id='N_S_142' type='standard_car' route='N_S' depart='321.0' departLane='random' departSpeed='10' />
    <vehicle id='N_W_143' type='standard_car' route='N_W' depart='323.0' departLane='random' departSpeed='10' />
    <vehicle id='W_S_144' type='standard_car' route='W_S' depart='323.0' departLane='random' departSpeed='10' />
    <vehicle id='S_N_145' type='standard_car' route='S_N' depart='324.0' departLane='random' departSpeed='10' />
    <vehicle id='S_E_146' type='standard_car' route='S_E' depart='325.0' departLane='random' departSpeed='10' />
    <vehicle id='N_W_147' type='standard_car' route='N_W' depart='325.0' departLane='random' departSpeed='10' />
    <vehicle id='W_E_148' type='standard_car' route='W_E' depart='325.0' departLane='random' departSpeed='10' />
    <vehicle id='N_S_149' type='standard_car' route='N_S' depart='326.0' departLane='random' departSpeed='10' />
    <vehicle id='S_E_150' type='standard_car' route='S_E' depart='326.0' departLane='random' departSpeed='10' />
    <vehicle id='S_N_151' type='standard_car' route='S_N' depart='327.0' departLane='random' departSpeed='10' />
    <vehicle id='N_S_152' type='standard_car' route='N_S' depart='329.0' departLane='random' departSpeed='10' />
    <vehicle id='S_N_153' type='standard_car' route='S_N' depart='329.0' departLane='random' departSpeed='10' />
    <vehicle id='E_W_154' type='standard_car' route='E_W' depart='329.0' departLane='random' departSpeed='10' />
    <vehicle id='S_E_155' type='standard_car' route='S_E' depart='330.0' departLane='random' departSpeed='10' />
    <vehicle id='W_S_156' type='standard_car' route='W_S' depart='330.0' departLane='random' departSpeed='10' />
    <vehicle id='S_N_157' type='standard_car' route='S_N' depart='331.0' departLane='random' departSpeed='10' />
    <vehicle id='W_S_158' type='standard_car' route='W_S' depart='332.0' departLane='random' departSpeed='10' />
    <vehicle id='W_S_159' type='standard_car' route='W_S' depart='334.0' departLane='random' departSpeed='10' />
    <vehicle id='E_W_160' type='standard_car' route='E_W' depart='335.0' departLane='random' departSpeed='10' />
    <vehicle id='E_N_161' type='standard_car' route='E_N' depart='335.0' departLane='random' departSpeed='10' />
    <vehicle id='W_E_162' type='standard_car' route='W_E' depart='338.0' departLane='random' departSpeed='10' />
    <vehicle id='W_E_163' type='standard_car' route='W_E' depart='338.0' departLane='random' departSpeed='10' />
    <vehicle id='N_W_164' type='standard_car' route='N_W' depart='338.0' departLane='random' departSpeed='10' />
    <vehicle id='N_W_165' type='standard_car' route='N_W' depart='339.0' departLane='random' departSpeed='10' />
    <vehicle id='W_S_166' type='standard_car' route='W_S' depart='339.0' departLane='random' departSpeed='10' />
    <vehicle id='E_W_167' type='standard_car' route='E_W' depart='340.0' departLane='random' departSpeed='10' />
    <vehicle id='N_W_168' type='standard_car' route='N_W' depart='340.0' departLane='random' departSpeed='10' />
    <vehicle id='E_N_169' type='standard_car' route='E_N' depart='340.0' departLane='random' departSpeed='10' />
    <vehicle id='S_N_170' type='standard_car' route='S_N' depart='341.0' departLane='random' departSpeed='10' />
    <vehicle id='N_S_171' type='standard_car' route='N_S' depart='342.0' departLane='random' departSpeed='10' />
    <vehicle id='S_N_172' type='standard_car' route='S_N' depart='343.0' departLane='random' departSpeed='10' />
    <vehicle id='N_S_173' type='standard_car' route='N_S' depart='344.0' departLane='random' departSpeed='10' />
    <vehicle id='E_W_174' type='standard_car' route='E_W' depart='346.0' departLane='random' departSpeed='10' />
    <vehicle id='W_E_175' type='standard_car' route='W_E' depart='346.0' departLane='random' departSpeed='10' />
    <vehicle id='S_N_176' type='standard_car' route='S_N' depart='347.0' departLane='random' departSpeed='10' />
    <vehicle id='E_W_177' type='standard_car' route='E_W' depart='349.0' departLane='random' departSpeed='10' />
    <vehicle id='E_W_178' type='standard_car' route='E_W' depart='352.0' departLane='random' departSpeed='10' />
    <vehicle id='W_S_179' type='standard_car' route='W_S' depart='352.0' departLane='random' departSpeed='10' />
    <vehicle id='S_E_180' type='standard_car' route='S_E' depart='353.0' departLane='random' departSpeed='10' />
    <vehicle id='S_E_181' type='standard_car' route='S_E' depart='354.0' departLane='random' departSpeed='10' />
    <vehicle id='W_E_182' type='standard_car' route='W_E' depart='356.0' departLane='random' departSpeed='10' />
    <vehicle id='S_N_183' type='standard_car' route='S_N' depart='358.0' departLane='random' departSpeed='10' />
    <vehicle id='N_W_184' type='standard_car' route='N_W' depart='358.0' departLane='random' departSpeed='10' />
    <vehicle id='W_E_185' type='standard_car' route='W_E' depart='359.0' departLane='random' departSpeed='10' />
    <vehicle id='S_N_186' type='standard_car' route='S_N' depart='359.0' departLane='random' departSpeed='10' />
    <vehicle id='N_W_187' type='standard_car' route='N_W' depart='360.0' departLane='random' departSpeed='10' />
    <vehicle id='W_E_188' type='standard_car' route='W_E' depart='360.0' departLane='random' departSpeed='10' />
    <vehicle id='S_E_189' type='standard_car' route='S_E' depart='361.0' departLane='random' departSpeed='10' />
    <vehicle id='W_E_190' type='standard_car' route='W_E' depart='361.0' departLane='random' departSpeed='10' />
    <vehicle id='N_S_191' type='standard_car' route='N_S' depart='363.0' departLane='random' departSpeed='10' />
    <vehicle id='W_E_192' type='standard_car' route='W_E' depart='363.0' departLane='random' departSpeed='10' />
    <vehicle id='W_E_193' type='standard_car' route='W_E' depart='364.0' departLane='random' departSpeed='10' />
    <vehicle id='N_S_194' type='standard_car' route='N_S' depart='366.0' departLane='random' departSpeed='10' />
    <vehicle id='W_S_195' type='standard_car' route='W_S' depart='367.0' departLane='random' departSpeed='10' />
    <vehicle id='W_S_196' type='standard_car' route='W_S' depart='368.0' departLane='random' departSpeed='10' />
    <vehicle id='W_E_197' type='standard_car' route='W_E' depart='368.0' departLane='random' departSpeed='10' />
    <vehicle id='S_N_198' type='standard_car' route='S_N' depart='368.0' departLane='random' departSpeed='10' />
    <vehicle id='W_S_199' type='standard_car' route='W_S' depart='370.0' departLane='random' departSpeed='10' />
    <vehicle id='N_W_200' type='standard_car' route='N_W' depart='370.0' departLane='random' departSpeed='10' />
    <vehicle id='S_N_201' type='standard_car' route='S_N' depart='371.0' departLane='random' departSpeed='10' />
    <vehicle id='S_N_202' type='standard_car' route='S_N' depart='371.0' departLane='random' departSpeed='10' />
    <vehicle id='N_S_203' type='standard_car' route='N_S' depart='371.0' departLane='random' departSpeed='10' />
    <vehicle id='N_S_204' type='standard_car' route='N_S' depart='372.0' departLane='random' departSpeed='10' />
    <vehicle id='W_E_205' type='standard_car' route='W_E' depart='372.0' departLane='random' departSpeed='10' />
    <vehicle id='N_W_206' type='standard_car' route='N_W' depart='374.0' departLane='random' departSpeed='10' />
    <vehicle id='N_S_207' type='standard_car' route='N_S' depart='374.0' departLane='random' departSpeed='10' />
    <vehicle id='W_E_208' type='standard_car' route='W_E' depart='377.0' departLane='random' departSpeed='10' />
    <vehicle id='N_W_209' type='standard_car' route='N_W' depart='378.0' departLane='random' departSpeed='10' />
    <vehicle id='W_S_210' type='standard_car' route='W_S' depart='379.0' departLane='random' departSpeed='10' />
    <vehicle id='W_E_211' type='standard_car' route='W_E' depart='379.0' departLane='random' departSpeed='10' />
    <vehicle id='E_W_212' type='standard_car' route='E_W' depart='380.0' departLane='random' departSpeed='10' />
    <vehicle id='S_E_213' type='standard_car' route='S_E' depart='380.0' departLane='random' departSpeed='10' />
    <vehicle id='E_W_214' type='standard_car' route='E_W' depart='382.0' departLane='random' departSpeed='10' />
    <vehicle id='N_S_215' type='standard_car' route='N_S' depart='382.0' departLane='random' departSpeed='10' />
    <vehicle id='S_E_216' type='standard_car' route='S_E' depart='385.0' departLane='random' departSpeed='10' />
    <vehicle id='W_S_217' type='standard_car' route='W_S' depart='386.0' departLane='random' departSpeed='10' />
    <vehicle id='W_E_218' type='standard_car' route='W_E' depart='387.0' departLane='random' departSpeed='10' />
    <vehicle id='W_E_219' type='standard_car' route='W_E' depart='389.0' departLane='random' departSpeed='10' />
    <vehicle id='N_W_220' type='standard_car' route='N_W' depart='390.0' departLane='random' departSpeed='10' />
    <vehicle id='W_E_221' type='standard_car' route='W_E' depart='391.0' departLane='random' departSpeed='10' />
    <vehicle id='E_N_222' type='standard_car' route='E_N' depart='392.0' departLane='random' departSpeed='10' />
    <vehicle id='S_E_223' type='standard_car' route='S_E' depart='394.0' departLane='random' departSpeed='10' />
    <vehicle id='E_W_224' type='standard_car' route='E_W' depart='395.0' departLane='random' departSpeed='10' />
    <vehicle id='W_E_225' type='standard_car' route='W_E' depart='395.0' departLane='random' departSpeed='10' />
    <vehicle id='N_W_226' type='standard_car' route='N_W' depart='395.0' departLane='random' departSpeed='10' />
    <vehicle id='W_S_227' type='standard_car' route='W_S' depart='398.0' departLane='random' departSpeed='10' />
    <vehicle id='N_S_228' type='standard_car' route='N_S' depart='398.0' departLane='random' departSpeed='10' />
    <vehicle id='W_E_229' type='standard_car' route='W_E' depart='400.0' departLane='random' departSpeed='10' />
    <vehicle id='S_E_230' type='standard_car' route='S_E' depart='400.0' departLane='random' departSpeed='10' />
    <vehicle id='E_N_231' type='standard_car' route='E_N' depart='401.0' departLane='random' departSpeed='10' />
    <vehicle id='E_W_232' type='standard_car' route='E_W' depart='402.0' departLane='random' departSpeed='10' />
    <vehicle id='S_E_233' type='standard_car' route='S_E' depart='402.0' departLane='random' departSpeed='10' />
    <vehicle id='W_E_234' type='standard_car' route='W_E' depart='404.0' departLane='random' departSpeed='10' />
    <vehicle id='W_E_235' type='standard_car' route='W_E' depart='405.0' departLane='random' departSpeed='10' />
    <vehicle id='E_W_236' type='standard_car' route='E_W' depart='406.0' departLane='random' departSpeed='10' />
    <vehicle id='E_W_237' type='standard_car' route='E_W' depart='406.0' departLane='random' departSpeed='10' />
    <vehicle id='W_S_238' type='standard_car' route='W_S' depart='407.0' departLane='random' departSpeed='10' />
    <vehicle id='E_W_239' type='standard_car' route='E_W' depart='408.0' departLane='random' departSpeed='10' />
    <vehicle id='E_W_240' type='standard_car' route='E_W' depart='408.0' departLane='random' departSpeed='10' />
    <vehicle id='W_E_241' type='standard_car' route='W_E' depart='410.0' departLane='random' departSpeed='10' />
    <vehicle id='W_E_242' type='standard_car' route='W_E' depart='410.0' departLane='random' departSpeed='10' />
    <vehicle id='W_S_243' type='standard_car' route='W_S' depart='411.0' departLane='random' departSpeed='10' />
    <vehicle id='E_W_244' type='standard_car' route='E_W' depart='411.0' departLane='random' departSpeed='10' />
    <vehicle id='W_E_245' type='standard_car' route='W_E' depart='411.0' departLane='random' departSpeed='10' />
    <vehicle id='E_W_246' type='standard_car' route='E_W' depart='412.0' departLane='random' departSpeed='10' />
    <vehicle id='N_W_247' type='standard_car' route='N_W' depart='413.0' departLane='random' departSpeed='10' />
    <vehicle id='W_E_248' type='standard_car' route='W_E' depart='417.0' departLane='random' departSpeed='10' />
    <vehicle id='E_W_249' type='standard_car' route='E_W' depart='420.0' departLane='random' departSpeed='10' />
    <vehicle id='E_W_250' type='standard_car' route='E_W' depart='421.0' departLane='random' departSpeed='10' />
    <vehicle id='S_N_251' type='standard_car' route='S_N' depart='422.0' departLane='random' departSpeed='10' />
    <vehicle id='N_S_252' type='standard_car' route='N_S' depart='423.0' departLane='random' departSpeed='10' />
    <vehicle id='W_S_253' type='standard_car' route='W_S' depart='423.0' departLane='random' departSpeed='10' />
    <vehicle id='W_E_254' type='standard_car' route='W_E' depart='424.0' departLane='random' departSpeed='10' />
    <vehicle id='N_S_255' type='standard_car' route='N_S' depart='425.0' departLane='random' departSpeed='10' />
    <vehicle id='S_E_256' type='standard_car' route='S_E' depart='425.0' departLane='random' departSpeed='10' />
    <vehicle id='S_E_257' type='standard_car' route='S_E' depart='425.0' departLane='random' departSpeed='10' />
    <vehicle id='S_E_258' type='standard_car' route='S_E' depart='428.0' departLane='random' departSpeed='10' />
    <vehicle id='N_S_259' type='standard_car' route='N_S' depart='433.0' departLane='random' departSpeed='10' />