<routes>
    <vType id="standard_car" length="5.0" maxSpeed="15" minGap="2.5" accel="2.0" decel="4.5" />
    <route id="N_S" edges="road_1_2_3 road_1_1_3"/>
    <route id="N_E" edges="road_1_2_3 road_1_1_0"/>
    <route id="N_W" edges="road_1_2_3 road_1_1_2"/>
    <route id="S_W" edges="road_1_0_1 road_1_1_2"/>
    <route id="S_E" edges="road_1_0_1 road_1_1_0"/>
    <route id="S_N" edges="road_1_0_1 road_1_1_1"/>

    <route id="W_E" edges="road_0_1_0 road_1_1_0"/>
    <route id="W_N" edges="road_0_1_0 road_1_1_1"/>
    <route id="W_S" edges="road_0_1_0 road_1_1_3"/>
    <route id="E_N" edges="road_2_1_2 road_1_1_1"/>
    <route id="E_S" edges="road_2_1_2 road_1_1_3"/>
    <route id="E_W" edges="road_2_1_2 road_1_1_2"/>
            
    <vehicle id='E_N_0' type='standard_car' route='E_N' depart='18.0' departLane='random' departSpeed='10' />
    <vehicle id='W_E_1' type='standard_car' route='W_E' depart='31.0' departLane='random' departSpeed='10' />
    <vehicle id='E_W_2' type='standard_car' route='E_W' depart='48.0' departLane='random' departSpeed='10' />
    <vehicle id='W_S_3' type='standard_car' route='W_S' depart='49.0' departLane='random' departSpeed='10' />
    <vehicle id='S_N_4' type='standard_car' route='S_N' depart='51.0' departLane='random' departSpeed='10' />
    <vehicle id='W_E_5' type='standard_car' route='W_E' depart='64.0' departLane='random' departSpeed='10' />
    <vehicle id='N_S_6' type='standard_car' route='N_S' depart='66.0' departLane='random' departSpeed='10' />
    <vehicle id='W_S_7' type='standard_car' route='W_S' depart='71.0' departLane='random' departSpeed='10' />
    <vehicle id='S_E_8' type='standard_car' route='S_E' depart='74.0' departLane='random' departSpeed='10' />
    <vehicle id='W_E_9' type='standard_car' route='W_E' depart='88.0' departLane='random' departSpeed='10' />
    <vehicle id='W_E_10' type='standard_car' route='W_E' depart='89.0' departLane='random' departSpeed='10' />
    <vehicle id='S_N_11' type='standard_car' route='S_N' depart='92.0' departLane='random' departSpeed='10' />
    <vehicle id='S_N_12' type='standard_car' route='S_N' depart='92.0' departLane='random' departSpeed='10' />
    <vehicle id='S_E_13' type='standard_car' route='S_E' depart='105.0' departLane='random' departSpeed='10' />
    <vehicle id='S_N_14' type='standard_car' route='S_N' depart='108.0' departLane='random' departSpeed='10' />
    <vehicle id='E_W_15' type='standard_car' route='E_W' depart='121.0' departLane='random' departSpeed='10' />
    <vehicle id='S_E_16' type='standard_car' route='S_E' depart='124.0' departLane='random' departSpeed='10' />
    <vehicle id='W_S_17' type='standard_car' route='W_S' depart='130.0' departLane='random' departSpeed='10' />
    <vehicle id='S_E_18' type='standard_car' route='S_E' depart='130.0' departLane='random' departSpeed='10' />
    <vehicle id='S_N_19' type='standard_car' route='S_N' depart='132.0' departLane='random' departSpeed='10' />
    <vehicle id='E_N_20' type='standard_car' route='E_N' depart='133.0' departLane='random' departSpeed='10' />
    <vehicle id='S_N_21' type='standard_car' route='S_N' depart='134.0' departLane='random' departSpeed='10' />
    <vehicle id='E_W_22' type='standard_car' route='E_W' depart='135.0' departLane='random' departSpeed='10' />
    <vehicle id='E_W_23' type='standard_car' route='E_W' depart='137.0' departLane='random' departSpeed='10' />
    <vehicle id='N_S_24' type='standard_car' route='N_S' depart='141.0' departLane='random' departSpeed='10' />
    <vehicle id='W_S_25' type='standard_car' route='W_S' depart='145.0' departLane='random' departSpeed='10' />
    <vehicle id='E_N_26' type='standard_car' route='E_N' depart='145.0' departLane='random' departSpeed='10' />
    <vehicle id='S_N_27' type='standard_car' route='S_N' depart='149.0' departLane='random' departSpeed='10' />
    <vehicle id='S_N_28' type='standard_car' route='S_N' depart='152.0' departLane='random' departSpeed='10' />
    <vehicle id='E_W_29' type='standard_car' route='E_W' depart='153.0' departLane='random' departSpeed='10' />
    <vehicle id='W_E_30' type='standard_car' route='W_E' depart='153.0' departLane='random' departSpeed='10' />
    <vehicle id='E_N_31' type='standard_car' route='E_N' depart='156.0' departLane='random' departSpeed='10' />
    <vehicle id='S_N_32' type='standard_car' route='S_N' depart='163.0' departLane='random' departSpeed='10' />
    <vehicle id='W_S_33' type='standard_car' route='W_S' depart='164.0' departLane='random' departSpeed='10' />
    <vehicle id='W_S_34' type='standard_car' route='W_S' depart='166.0' departLane='random' departSpeed='10' />
    <vehicle id='S_N_35' type='standard_car' route='S_N' depart='169.0' departLane='random' departSpeed='10' />
    <vehicle id='W_E_36' type='standard_car' route='W_E' depart='170.0' departLane='random' departSpeed='10' />
    <vehicle id='W_S_37' type='standard_car' route='W_S' depart='173.0' departLane='random' departSpeed='10' />
    <vehicle id='E_N_38' type='standard_car' route='E_N' depart='176.0' departLane='random' departSpeed='10' />
    <vehicle id='W_S_39' type='standard_car' route='W_S' depart='178.0' departLane='random' departSpeed='10' />
    <vehicle id='N_S_40' type='standard_car' route='N_S' depart='180.0' departLane='random' departSpeed='10' />
    <vehicle id='E_N_41' type='standard_car' route='E_N' depart='181.0' departLane='random' departSpeed='10' />
    <vehicle id='W_E_42' type='standard_car' route='W_E' depart='185.0' departLane='random' departSpeed='10' />
    <vehicle id='N_S_43' type='standard_car' route='N_S' depart='188.0' departLane='random' departSpeed='10' />
    <vehicle id='N_W_44' type='standard_car' route='N_W' depart='190.0' departLane='random' departSpeed='10' />
    <vehicle id='W_S_45' type='standard_car' route='W_S' depart='190.0' departLane='random' departSpeed='10' />
    <vehicle id='W_E_46' type='standard_car' route='W_E' depart='191.0' departLane='random' departSpeed='10' />
    <vehicle id='N_W_47' type='standard_car' route='N_W' depart='192.0' departLane='random' departSpeed='10' />
    <vehicle id='W_S_48' type='standard_car' route='W_S' depart='193.0' departLane='random' departSpeed='10' />
    <vehicle id='S_E_49' type='standard_car' route='S_E' depart='193.0' departLane='random' departSpeed='10' />
    <vehicle id='S_N_50' type='standard_car' route='S_N' depart='197.0' departLane='random' departSpeed='10' />
    <vehicle id='N_S_51' type='standard_car' route='N_S' depart='197.0' departLane='random' departSpeed='10' />
    <vehicle id='E_N_52' type='standard_car' route='E_N' depart='199.0' departLane='random' departSpeed='10' />
    <vehicle id='N_S_53' type='standard_car' route='N_S' depart='199.0' departLane='random' departSpeed='10' />
    <vehicle id='N_W_54' type='standard_car' route='N_W' depart='203.0' departLane='random' departSpeed='10' />
    <vehicle id='W_S_55' type='standard_car' route='W_S' depart='203.0' departLane='random' departSpeed='10' />
    <vehicle id='W_E_56' type='standard_car' route='W_E' depart='204.0' departLane='random' departSpeed='10' />
    <vehicle id='S_E_57' type='standard_car' route='S_E' depart='206.0' departLane='random' departSpeed='10' />
    <vehicle id='E_W_58' type='standard_car' route='E_W' depart='208.0' departLane='random' departSpeed='10' />
    <vehicle id='W_E_59' type='standard_car' route='W_E' depart='208.0' departLane='random' departSpeed='10' />
    <vehicle id='W_E_60' type='standard_car' route='W_E' depart='209.0' departLane='random' departSpeed='10' />
    <vehicle id='N_S_61' type='standard_car' route='N_S' depart='211.0' departLane='random' departSpeed='10' />
    <vehicle id='N_S_62' type='standard_car' route='N_S' depart='212.0' departLane='random' departSpeed='10' />
    <vehicle id='W_E_63' type='standard_car' route='W_E' depart='212.0' departLane='random' departSpeed='10' />
    <vehicle id='N_W_64' type='standard_car' route='N_W' depart='216.0' departLane='random' departSpeed='10' />
    <vehicle id='E_W_65' type='standard_car' route='E_W' depart='218.0' departLane='random' departSpeed='10' />
    <vehicle id='E_N_66' type='standard_car' route='E_N' depart='219.0' departLane='random' departSpeed='10' />
    <vehicle id='W_E_67' type='standard_car' route='W_E' depart='224.0' departLane='random' departSpeed='10' />
    <vehicle id='W_E_68' type='standard_car' route='W_E' depart='226.0' departLane='random' departSpeed='10' />
    <vehicle id='N_W_69' type='standard_car' route='N_W' depart='226.0' departLane='random' departSpeed='10' />
    <vehicle id='S_E_70' type='standard_car' route='S_E' depart='226.0' departLane='random' departSpeed='10' />
    <vehicle id='N_W_71' type='standard_car' route='N_W' depart='228.0' departLane='random' departSpeed='10' />
    <vehicle id='E_W_72' type='standard_car' route='E_W' depart='228.0' departLane='random' departSpeed='10' />
    <vehicle id='N_W_73' type='standard_car' route='N_W' depart='230.0' departLane='random' departSpeed='10' />
    <vehicle id='W_E_74' type='standard_car' route='W_E' depart='235.0' departLane='random' departSpeed='10' />
    <vehicle id='S_N_75' type='standard_car' route='S_N' depart='235.0' departLane='random' departSpeed='10' />
    <vehicle id='W_E_76' type='standard_car' route='W_E' depart='236.0' departLane='random' departSpeed='10' />
    <vehicle id='S_E_77' type='standard_car' route='S_E' depart='239.0' departLane='random' departSpeed='10' />
    <vehicle id='E_W_78' type='standard_car' route='E_W' depart='241.0' departLane='random' departSpeed='10' />
    <vehicle id='S_N_79' type='standard_car' route='S_N' depart='241.0' departLane='random' departSpeed='10' />
    <vehicle id='S_E_80' type='standard_car' route='S_E' depart='243.0' departLane='random' departSpeed='10' />
    <vehicle id='E_W_81' type='standard_car' route='E_W' depart='246.0' departLane='random' departSpeed='10' />
    <vehicle id='S_E_82' type='standard_car' route='S_E' depart='246.0' departLane='random' departSpeed='10' />
    <vehicle id='S_E_83' type='standard_car' route='S_E' depart='249.0' departLane='random' departSpeed='10' />
    <vehicle id='N_S_84' type='standard_car' route='N_S' depart='249.0' departLane='random' departSpeed='10' />
    <vehicle id='N_S_85' type='standard_car' route='N_S' depart='252.0' departLane='random' departSpeed='10' />
    <vehicle id='W_S_86' type='standard_car' route='W_S' depart='253.0' departLane='random' departSpeed='10' />
    <vehicle id='W_S_87' type='standard_car' route='W_S' depart='253.0' departLane='random' departSpeed='10' />
    <vehicle id='E_W_88' type='standard_car' route='E_W' depart='254.0' departLane='random' departSpeed='10' />
    <vehicle id='W_E_89' type='standard_car' route='W_E' depart='254.0' departLane='random' departSpeed='10' />
    <vehicle id='W_E_90' type='standard_car' route='W_E' depart='254.0' departLane='random' departSpeed='10' />
    <vehicle id='N_W_91' type='standard_car' route='N_W' depart='255.0' departLane='random' departSpeed='10' />
    <vehicle id='W_S_92' type='standard_car' route='W_S' depart='255.0' departLane='random' departSpeed='10' />
    <vehicle id='S_N_93' type='standard_car' route='S_N' depart='258.0' departLane='random' departSpeed='10' />
    <vehicle id='E_W_94' type='standard_car' route='E_W' depart='258.0' departLane='random' departSpeed='10' />
    <vehicle id='S_E_95' type='standard_car' route='S_E' depart='258.0' departLane='random' departSpeed='10' />
    <vehicle id='S_N_96' type='standard_car' route='S_N' depart='264.0' departLane='random' departSpeed='10' />
    <vehicle id='N_W_97' type='standard_car' route='N_W' depart='266.0' departLane='random' departSpeed='10' />
    <vehicle id='W_E_98' type='standard_car' route='W_E' depart='267.0' departLane='random' departSpeed='10' />
    <vehicle id='S_N_99' type='standard_car' route='S_N' depart='267.0' departLane='random' departSpeed='10' />
    <vehicle id='E_N_100' type='standard_car' route='E_N' depart='269.0' departLane='random' departSpeed='10' />
    <vehicle id='S_N_101' type='standard_car' route='S_N' depart='272.0' departLane='random' departSpeed='10' />
    <vehicle id='S_N_102' type='standard_car' route='S_N' depart='279.0' departLane='random' departSpeed='10' />
    <vehicle id='N_W_103' type='standard_car' route='N_W' depart='280.0' departLane='random' departSpeed='10' />
    <vehicle id='N_S_104' type='standard_car' route='N_S' depart='280.0' departLane='random' departSpeed='10' />
    <vehicle id='E_W_105' type='standard_car' route='E_W' depart='281.0' departLane='random' departSpeed='10' />
    <vehicle id='N_W_106' type='standard_car' route='N_W' depart='284.0' departLane='random' departSpeed='10' />
    <vehicle id='S_N_107' type='standard_car' route='S_N' depart='285.0' departLane='random' departSpeed='10' />
    <vehicle id='E_W_108' type='standard_car' route='E_W' depart='285.0' departLane='random' departSpeed='10' />
    <vehicle id='S_E_109' type='standard_car' route='S_E' depart='286.0' departLane='random' departSpeed='10' />
    <vehicle id='W_E_110' type='standard_car' route='W_E' depart='296.0' departLane='random' departSpeed='10' />
    <vehicle id='E_W_111' type='standard_car' route='E_W' depart='297.0' departLane='random' departSpeed='10' />
    <vehicle id='S_N_112' type='standard_car' route='S_N' depart='298.0' departLane='random' departSpeed='10' />
    <vehicle id='N_W_113' type='standard_car' route='N_W' depart='303.0' departLane='random' departSpeed='10' />
    <vehicle id='N_S_114' type='standard_car' route='N_S' depart='305.0' departLane='random' departSpeed='10' />
    <vehicle id='W_E_115' type='standard_car' route='W_E' depart='307.0' departLane='random' departSpeed='10' />
    <vehicle id='W_E_116' type='standard_car' route='W_E' depart='308.0' departLane='random' departSpeed='10' />
    <vehicle id='E_N_117' type='standard_car' route='E_N' depart='308.0' departLane='random' departSpeed='10' />
    <vehicle id='W_S_118' type='standard_car' route='W_S' depart='311.0' departLane='random' departSpeed='10' />
    <vehicle id='N_W_119' type='standard_car' route='N_W' depart='311.0' departLane='random' departSpeed='10' />
    <vehicle id='S_N_120' type='standard_car' route='S_N' depart='313.0' departLane='random' departSpeed='10' />
    <vehicle id='E_N_121' type='standard_car' route='E_N' depart='313.0' departLane='random' departSpeed='10' />
    <vehicle id='N_S_122' type='standard_car' route='N_S' depart='315.0' departLane='random' departSpeed='10' />
    <vehicle id='E_N_123' type='standard_car' route='E_N' depart='316.0' departLane='random' departSpeed='10' />
    <vehicle id='E_W_124' type='standard_car' route='E_W' depart='316.0' departLane='random' departSpeed='10' />
    <vehicle id='W_S_125' type='standard_car' route='W_S' depart='317.0' departLane='random' departSpeed='10' />
    <vehicle id='W_E_126' type='standard_car' route='W_E' depart='318.0' departLane='random' departSpeed='10' />
    <vehicle id='W_E_127' type='standard_car' route='W_E' depart='323.0' departLane='random' departSpeed='10' />
    <vehicle id='W_S_128' type='standard_car' route='W_S' depart='323.0' departLane='random' departSpeed='10' />
    <vehicle id='N_S_129' type='standard_car' route='N_S' depart='325.0' departLane='random' departSpeed='10' />
    <vehicle id='E_N_130' type='standard_car' route='E_N' depart='326.0' departLane='random' departSpeed='10' />
    <vehicle id='W_E_131' type='standard_car' route='W_E' depart='330.0' departLane='random' departSpeed='10' />
    <vehicle id='E_N_132' type='standard_car' route='E_N' depart='333.0' departLane='random' departSpeed='10' />
    <vehicle id='E_N_133' type='standard_car' route='E_N' depart='336.0' departLane='random' departSpeed='10' />
    <vehicle id='N_S_134' type='standard_car' route='N_S' depart='337.0' departLane='random' departSpeed='10' />
    <vehicle id='N_S_135' type='standard_car' route='N_S' depart='338.0' departLane='random' departSpeed='10' />
    <vehicle id='W_S_136' type='standard_car' route='W_S' depart='341.0' departLane='random' departSpeed='10' />
    <vehicle id='E_N_137' type='standard_car' route='E_N' depart='341.0' departLane='random' departSpeed='10' />
    <vehicle id='E_W_138' type='standard_car' route='E_W' depart='341.0' departLane='random' departSpeed='10' />
    <vehicle id='N_S_139' type='standard_car' route='N_S' depart='343.0' departLane='random' departSpeed='10' />
    <vehicle id='W_S_140' type='standard_car' route='W_S' depart='344.0' departLane='random' departSpeed='10' />
    <vehicle id='W_E_141' type='standard_car' route='W_E' depart='345.0' departLane='random' departSpeed='10' />
    <vehicle id='N_S_142' type='standard_car' route='N_S' depart='345.0' departLane='random' departSpeed='10' />
    <vehicle id='N_S_143' type='standard_car' route='N_S' depart='346.0' departLane='random' departSpeed='10' />
    <vehicle id='N_W_144' type='standard_car' route='N_W' depart='348.0' departLane='random' departSpeed='10' />
    <vehicle id='S_N_145' type='standard_car' route='S_N' depart='348.0' departLane='random' departSpeed='10' />
    <vehicle id='E_W_146' type='standard_car' route='E_W' depart='349.0' departLane='random' departSpeed='10' />
    <vehicle id='E_W_147' type='standard_car' route='E_W' depart='349.0' departLane='random' departSpeed='10' />
    <vehicle id='W_E_148' type='standard_car' route='W_E' depart='349.0' departLane='random' departSpeed='10' />
    <vehicle id='N_S_149' type='standard_car' route='N_S' depart='350.0' departLane='random' departSpeed='10' />
    <vehicle id='E_W_150' type='standard_car' route='E_W' depart='350.0' departLane='random' departSpeed='10' />
    <vehicle id='S_E_151' type='standard_car' route='S_E' depart='350.0' departLane='random' departSpeed='10' />
    <vehicle id='W_E_152' type='standard_car' route='W_E' depart='351.0' departLane='random' departSpeed='10' />
    <vehicle id='E_W_153' type='standard_car' route='E_W' depart='357.0' departLane='random' departSpeed='10' />
    <vehicle id='S_N_154' type='standard_car' route='S_N' depart='358.0' departLane='random' departSpeed='10' />
    <vehicle id='W_E_155' type='standard_car' route='W_E' depart='360.0' departLane='random' departSpeed='10' />
    <vehicle id='W_S_156' type='standard_car' route='W_S' depart='361.0' departLane='random' departSpeed='10' />
    <vehicle id='S_E_157' type='standard_car' route='S_E' depart='361.0' departLane='random' departSpeed='10' />
    <vehicle id='W_S_158' type='standard_car' route='W_S' depart='365.0' departLane='random' departSpeed='10' />
    <vehicle id='N_S_159' type='standard_car' route='N_S' depart='366.0' departLane='random' departSpeed='10' />
    <vehicle id='N_W_160' type='standard_car' route='N_W' depart='366.0' departLane='random' departSpeed='10' />
    <vehicle id='W_S_161' type='standard_car' route='W_S' depart='367.0' departLane='random' departSpeed='10' />
    <vehicle id='N_S_162' type='standard_car' route='N_S' depart='372.0' departLane='random' departSpeed='10' />
    <vehicle id='W_S_163' type='standard_car' route='W_S' depart='375.0' departLane='random' departSpeed='10' />
    <vehicle id='E_W_164' type='standard_car' route='E_W' depart='376.0' departLane='random' departSpeed='10' />
    <vehicle id='S_N_165' type='standard_car' route='S_N' depart='377.0' departLane='random' departSpeed='10' />
    <vehicle id='N_S_166' type='standard_car' route='N_S' depart='377.0' departLane='random' departSpeed='10' />
    <vehicle id='E_W_167' type='standard_car' route='E_W' depart='380.0' departLane='random' departSpeed='10' />
    <vehicle id='S_N_168' type='standard_car' route='S_N' depart='382.0' departLane='random' departSpeed='10' />
    <vehicle id='S_N_169' type='standard_car' route='S_N' depart='387.0' departLane='random' departSpeed='10' />
    <vehicle id='S_E_170' type='standard_car' route='S_E' depart='388.0' departLane='random' departSpeed='10' />
    <vehicle id='S_N_171' type='standard_car' route='S_N' depart='388.0' departLane='random' departSpeed='10' />
    <vehicle id='W_S_172' type='standard_car' route='W_S' depart='389.0' departLane='random' departSpeed='10' />
    <vehicle id='N_S_173' type='standard_car' route='N_S' depart='389.0' departLane='random' departSpeed='10' />
    <vehicle id='S_N_174' type='standard_car' route='S_N' depart='389.0' departLane='random' departSpeed='10' />
    <vehicle id='E_N_175' type='standard_car' route='E_N' depart='390.0' departLane='random' departSpeed='10' />
    <vehicle id='W_E_176' type='standard_car' route='W_E' depart='390.0' departLane='random' departSpeed='10' />
    <vehicle id='E_W_177' type='standard_car' route='E_W' depart='390.0' departLane='random' departSpeed='10' />
    <vehicle id='E_N_178' type='standard_car' route='E_N' depart='392.0' departLane='random' departSpeed='10' />
    <vehicle id='W_E_179' type='standard_car' route='W_E' depart='394.0' departLane='random' departSpeed='10' />
    <vehicle id='W_S_180' type='standard_car' route='W_S' depart='395.0' departLane='random' departSpeed='10' />
    <vehicle id='S_N_181' type='standard_car' route='S_N' depart='396.0' departLane='random' departSpeed='10' />
    <vehicle id='N_S_182' type='standard_car' route='N_S' depart='397.0' departLane='random' departSpeed='10' />
    <vehicle id='E_W_183' type='standard_car' route='E_W' depart='398.0' departLane='random' departSpeed='10' />
    <vehicle id='E_N_184' type='standard_car' route='E_N' depart='399.0' departLane='random' departSpeed='10' />
    <vehicle id='E_W_185' type='standard_car' route='E_W' depart='399.0' departLane='random' departSpeed='10' />
    <vehicle id='S_E_186' type='standard_car' route='S_E' depart='400.0' departLane='random' departSpeed='10' />
    <vehicle id='E_N_187' type='standard_car' route='E_N' depart='403.0' departLane='random' departSpeed='10' />
    <vehicle id='E_W_188' type='standard_car' route='E_W' depart='405.0' departLane='random' departSpeed='10' />
    <vehicle id='S_E_189' type='standard_car' route='S_E' depart='405.0' departLane='random' departSpeed='10' />
    <vehicle id='E_N_190' type='standard_car' route='E_N' depart='406.0' departLane='random' departSpeed='10' />
    <vehicle id='E_W_191' type='standard_car' route='E_W' depart='407.0' departLane='random' departSpeed='10' />
    <vehicle id='E_N_192' type='standard_car' route='E_N' depart='410.0' departLane='random' departSpeed='10' />
    <vehicle id='S_E_193' type='standard_car' route='S_E' depart='410.0' departLane='random' departSpeed='10' />
    <vehicle id='W_E_194' type='standard_car' route='W_E' depart='411.0' departLane='random' departSpeed='10' />
    <vehicle id='S_N_195' type='standard_car' route='S_N' depart='412.0' departLane='random' departSpeed='10' />
    <vehicle id='E_N_196' type='standard_car' route='E_N' depart='413.0' departLane='random' departSpeed='10' />
    <vehicle id='W_S_197' type='standard_car' route='W_S' depart='413.0' departLane='random' departSpeed='10' />
    <vehicle id='E_W_198' type='standard_car' route='E_W' depart='415.0' departLane='random' departSpeed='10' />
    <vehicle id='E_W_199' type='standard_car' route='E_W' depart='415.0' departLane='random' departSpeed='10' />
    <vehicle id='E_W_200' type='standard_car' route='E_W' depart='417.0' departLane='random' departSpeed='10' />
    <vehicle id='W_E_201' type='standard_car' route='W_E' depart='424.0' departLane='random' departSpeed='10' />
    <vehicle id='E_W_202' type='standard_car' route='E_W' depart='424.0' departLane='random' departSpeed='10' />
    <vehicle id='S_E_203' type='standard_car' route='S_E' depart='424.0' departLane='random' departSpeed='10' />
    <vehicle id='W_E_204' type='standard_car' route='W_E' depart='425.0' departLane='random' departSpeed='10' />
    <vehicle id='W_E_205' type='standard_car' route='W_E' depart='426.0' departLane='random' departSpeed='10' />
    <vehicle id='W_E_206' type='standard_car' route='W_E' depart='427.0' departLane='random' departSpeed='10' />
    <vehicle id='S_E_207' type='standard_car' route='S_E' depart='428.0' departLane='random' departSpeed='10' />
    <vehicle id='S_N_208' type='standard_car' route='S_N' depart='429.0' departLane='random' departSpeed='10' />
    <vehicle id='S_N_209' type='standard_car' route='S_N' depart='430.0' departLane='random' departSpeed='10' />
    <vehicle id='N_W_210' type='standard_car' route='N_W' depart='430.0' departLane='random' departSpeed='10' />
    <vehicle id='S_N_211' type='standard_car' route='S_N' depart='435.0' departLane='random' departSpeed='10' />
    <vehicle id='S_E_212' type='standard_car' route='S_E' depart='436.0' departLane='random' departSpeed='10' />
    <vehicle id='W_E_213' type='standard_car' route='W_E' depart='438.0' departLane='random' departSpeed='10' />
    <vehicle id='N_W_214' type='standard_car' route='N_W' depart='439.0' departLane='random' departSpeed='10' />
    <vehicle id='E_W_215' type='standard_car' route='E_W' depart='439.0' departLane='random' departSpeed='10' />
    <vehicle id='N_S_216' type='standard_car' route='N_S' depart='440.0' departLane='random' departSpeed='10' />
    <vehicle id='E_W_217' type='standard_car' route='E_W' depart='441.0' departLane='random' departSpeed='10' />
    <vehicle id='E_N_218' type='standard_car' route='E_N' depart='441.0' departLane='random' departSpeed='10' />
    <vehicle id='W_E_219' type='standard_car' route='W_E' depart='443.0' departLane='random' departSpeed='10' />
    <vehicle id='N_W_220' type='standard_car' route='N_W' depart='443.0' departLane='random' departSpeed='10' />
    <vehicle id='N_W_221' type='standard_car' route='N_W' depart='444.0' departLane='random' departSpeed='10' />
    <vehicle id='E_W_222' type='standard_car' route='E_W' depart='445.0' departLane='random' departSpeed='10' />
    <vehicle id='E_W_223' type='standard_car' route='E_W' depart='445.0' departLane='random' departSpeed='10' />
    <vehicle id='N_S_224' type='standard_car' route='N_S' depart='446.0' departLane='random' departSpeed='10' />
    <vehicle id='W_E_225' type='standard_car' route='W_E' depart='446.0' departLane='random' departSpeed='10' />
    <vehicle id='S_E_226' type='standard_car' route='S_E' depart='448.0' departLane='random' departSpeed='10' />
    <vehicle id='W_E_227' type='standard_car' route='W_E' depart='448.0' departLane='random' departSpeed='10' />
    <vehicle id='S_N_228' type='standard_car' route='S_N' depart='449.0' departLane='random' departSpeed='10' />
    <vehicle id='E_W_229' type='standard_car' route='E_W' depart='453.0' departLane='random' departSpeed='10' />
    <vehicle id='N_W_230' type='standard_car' route='N_W' depart='453.0' departLane='random' departSpeed='10' />
    <vehicle id='N_S_231' type='standard_car' route='N_S' depart='454.0' departLane='random' departSpeed='10' />
    <vehicle id='E_W_232' type='standard_car' route='E_W' depart='454.0' departLane='random' departSpeed='10' />
    <vehicle id='N_W_233' type='standard_car' route='N_W' depart='455.0' departLane='random' departSpeed='10' />
    <vehicle id='S_E_234' type='standard_car' route='S_E' depart='459.0' departLane='random' departSpeed='10' />
    <vehicle id='N_S_235' type='standard_car' route='N_S' depart='460.0' departLane='random' departSpeed='10' />
    <vehicle id='W_E_236' type='standard_car' route='W_E' depart='461.0' departLane='random' departSpeed='10' />
    <vehicle id='E_W_237' type='standard_car' route='E_W' depart='461.0' departLane='random' departSpeed='10' />
    <vehicle id='W_E_238' type='standard_car' route='W_E' depart='462.0' departLane='random' departSpeed='10' />
    <vehicle id='W_E_239' type='standard_car' route='W_E' depart='463.0' departLane='random' departSpeed='10' />
    <vehicle id='E_W_240' type='standard_car' route='E_W' depart='465.0' departLane='random' departSpeed='10' />
    <vehicle id='S_N_241' type='standard_car' route='S_N' depart='470.0' departLane='random' departSpeed='10' />
    <vehicle id='W_S_242' type='standard_car' route='W_S' depart='470.0' departLane='random' departSpeed='10' />
    <vehicle id='S_N_243' type='standard_car' route='S_N' depart='471.0' departLane='random' departSpeed='10' />
    <vehicle id='S_N_244' type='standard_car' route='S_N' depart='471.0' departLane='random' departSpeed='10' />
    <vehicle id='W_S_245' type='standard_car' route='W_S' depart='473.0' departLane='random' departSpeed='10' />
    <vehicle id='N_S_246' type='standard_car' route='N_S' depart='474.0' departLane='random' departSpeed='10' />
    <vehicle id='W_E_247' type='standard_car' route='W_E' depart='474.0' departLane='random' departSpeed='10' />
    <vehicle id='S_N_248' type='standard_car' route='S_N' depart='477.0' departLane='random' departSpeed='10' />
    <vehicle id='E_W_249' type='standard_car' route='E_W' depart='478.0' departLane='random' departSpeed='10' />
    <vehicle id='E_W_250' type='standard_car' route='E_W' depart='481.0' departLane='random' departSpeed='10' />
    <vehicle id='E_W_251' type='standard_car' route='E_W' depart='482.0' departLane='random' departSpeed='10' />
    <vehicle id='E_N_252' type='standard_car' route='E_N' depart='482.0' departLane='random' departSpeed='10' />
    <vehicle id='N_S_253' type='standard_car' route='N_S' depart='482.0' departLane='random' departSpeed='10' />
    <vehicle id='N_S_254' type='standard_car' route='N_S' depart='482.0' departLane='random' departSpeed='10' />
    <vehicle id='W_E_255' type='standard_car' route='W_E' depart='483.0' departLane='random' departSpeed='10' />
    <vehicle id='N_W_256' type='standard_car' route='N_W' depart='483.0' departLane='random' departSpeed='10' />
    <vehicle id='E_N_257' type='standard_car' route='E_N' depart='484.0' departLane='random' departSpeed='10' />
    <vehicle id='S_E_258' type='standard_car' route='S_E' depart='484.0' departLane='random' departSpeed='10' />
    <vehicle id='E_W_259' type='standard_car' route='E_W' depart='485.0' departLane='random' departSpeed='10' />