<routes>
    <vType id="standard_car" length="5.0" maxSpeed="15" minGap="2.5" accel="2.0" decel="4.5" />
    <route id="N_S" edges="road_1_2_3 road_1_1_3"/>
    <route id="N_E" edges="road_1_2_3 road_1_1_0"/>
    <route id="N_W" edges="road_1_2_3 road_1_1_2"/>
    <route id="S_W" edges="road_1_0_1 road_1_1_2"/>
    <route id="S_E" edges="road_1_0_1 road_1_1_0"/>
    <route id="S_N" edges="road_1_0_1 road_1_1_1"/>

    <route id="W_E" edges="road_0_1_0 road_1_1_0"/>
    <route id="W_N" edges="road_0_1_0 road_1_1_1"/>
    <route id="W_S" edges="road_0_1_0 road_1_1_3"/>
    <route id="E_N" edges="road_2_1_2 road_1_1_1"/>
    <route id="E_S" edges="road_2_1_2 road_1_1_3"/>
    <route id="E_W" edges="road_2_1_2 road_1_1_2"/>
            
    <vehicle id='W_S_0' type='standard_car' route='W_S' depart='5.0' departLane='random' departSpeed='10' />
    <vehicle id='W_E_1' type='standard_car' route='W_E' depart='35.0' departLane='random' departSpeed='10' />
    <vehicle id='W_E_2' type='standard_car' route='W_E' depart='37.0' departLane='random' departSpeed='10' />
    <vehicle id='E_W_3' type='standard_car' route='E_W' depart='42.0' departLane='random' departSpeed='10' />
    <vehicle id='S_E_4' type='standard_car' route='S_E' depart='47.0' departLane='random' departSpeed='10' />
    <vehicle id='S_E_5' type='standard_car' route='S_E' depart='60.0' departLane='random' departSpeed='10' />
    <vehicle id='W_E_6' type='standard_car' route='W_E' depart='62.0' departLane='random' departSpeed='10' />
    <vehicle id='W_E_7' type='standard_car' route='W_E' depart='62.0' departLane='random' departSpeed='10' />
    <vehicle id='S_N_8' type='standard_car' route='S_N' depart='74.0' departLane='random' departSpeed='10' />
    <vehicle id='S_N_9' type='standard_car' route='S_N' depart='79.0' departLane='random' departSpeed='10' />
    <vehicle id='N_S_10' type='standard_car' route='N_S' depart='80.0' departLane='random' departSpeed='10' />
    <vehicle id='W_S_11' type='standard_car' route='W_S' depart='87.0' departLane='random' departSpeed='10' />
    <vehicle id='S_E_12' type='standard_car' route='S_E' depart='87.0' departLane='random' departSpeed='10' />
    <vehicle id='E_W_13' type='standard_car' route='E_W' depart='89.0' departLane='random' departSpeed='10' />
    <vehicle id='S_E_14' type='standard_car' route='S_E' depart='94.0' departLane='random' departSpeed='10' />
    <vehicle id='S_E_15' type='standard_car' route='S_E' depart='95.0' departLane='random' departSpeed='10' />
    <vehicle id='N_W_16' type='standard_car' route='N_W' depart='95.0' departLane='random' departSpeed='10' />
    <vehicle id='W_E_17' type='standard_car' route='W_E' depart='106.0' departLane='random' departSpeed='10' />
    <vehicle id='E_W_18' type='standard_car' route='E_W' depart='107.0' departLane='random' departSpeed='10' />
    <vehicle id='W_E_19' type='standard_car' route='W_E' depart='109.0' departLane='random' departSpeed='10' />
    <vehicle id='W_S_20' type='standard_car' route='W_S' depart='109.0' departLane='random' departSpeed='10' />
    <vehicle id='N_W_21' type='standard_car' route='N_W' depart='111.0' departLane='random' departSpeed='10' />
    <vehicle id='N_W_22' type='standard_car' route='N_W' depart='112.0' departLane='random' departSpeed='10' />
    <vehicle id='S_N_23' type='standard_car' route='S_N' depart='113.0' departLane='random' departSpeed='10' />
    <vehicle id='E_W_24' type='standard_car' route='E_W' depart='123.0' departLane='random' departSpeed='10' />
    <vehicle id='N_S_25' type='standard_car' route='N_S' depart='125.0' departLane='random' departSpeed='10' />
    <vehicle id='E_N_26' type='standard_car' route='E_N' depart='125.0' departLane='random' departSpeed='10' />
    <vehicle id='N_W_27' type='standard_car' route='N_W' depart='127.0' departLane='random' departSpeed='10' />
    <vehicle id='E_W_28' type='standard_car' route='E_W' depart='127.0' departLane='random' departSpeed='10' />
    <vehicle id='S_N_29' type='standard_car' route='S_N' depart='128.0' departLane='random' departSpeed='10' />
    <vehicle id='N_S_30' type='standard_car' route='N_S' depart='129.0' departLane='random' departSpeed='10' />
    <vehicle id='E_W_31' type='standard_car' route='E_W' depart='131.0' departLane='random' departSpeed='10' />
    <vehicle id='N_S_32' type='standard_car' route='N_S' depart='133.0' departLane='random' departSpeed='10' />
    <vehicle id='N_S_33' type='standard_car' route='N_S' depart='135.0' departLane='random' departSpeed='10' />
    <vehicle id='N_W_34' type='standard_car' route='N_W' depart='136.0' departLane='random' departSpeed='10' />
    <vehicle id='W_E_35' type='standard_car' route='W_E' depart='139.0' departLane='random' departSpeed='10' />
    <vehicle id='E_W_36' type='standard_car' route='E_W' depart='140.0' departLane='random' departSpeed='10' />
    <vehicle id='E_W_37' type='standard_car' route='E_W' depart='141.0' departLane='random' departSpeed='10' />
    <vehicle id='W_S_38' type='standard_car' route='W_S' depart='141.0' departLane='random' departSpeed='10' />
    <vehicle id='S_E_39' type='standard_car' route='S_E' depart='141.0' departLane='random' departSpeed='10' />
    <vehicle id='W_E_40' type='standard_car' route='W_E' depart='144.0' departLane='random' departSpeed='10' />
    <vehicle id='W_E_41' type='standard_car' route='W_E' depart='148.0' departLane='random' departSpeed='10' />
    <vehicle id='S_N_42' type='standard_car' route='S_N' depart='150.0' departLane='random' departSpeed='10' />
    <vehicle id='N_S_43' type='standard_car' route='N_S' depart='151.0' departLane='random' departSpeed='10' />
    <vehicle id='S_N_44' type='standard_car' route='S_N' depart='151.0' departLane='random' departSpeed='10' />
    <vehicle id='N_S_45' type='standard_car' route='N_S' depart='152.0' departLane='random' departSpeed='10' />
    <vehicle id='W_E_46' type='standard_car' route='W_E' depart='153.0' departLane='random' departSpeed='10' />
    <vehicle id='S_N_47' type='standard_car' route='S_N' depart='154.0' departLane='random' departSpeed='10' />
    <vehicle id='W_S_48' type='standard_car' route='W_S' depart='154.0' departLane='random' departSpeed='10' />
    <vehicle id='E_N_49' type='standard_car' route='E_N' depart='157.0' departLane='random' departSpeed='10' />
    <vehicle id='S_E_50' type='standard_car' route='S_E' depart='158.0' departLane='random' departSpeed='10' />
    <vehicle id='E_W_51' type='standard_car' route='E_W' depart='158.0' departLane='random' departSpeed='10' />
    <vehicle id='N_W_52' type='standard_car' route='N_W' depart='161.0' departLane='random' departSpeed='10' />
    <vehicle id='S_N_53' type='standard_car' route='S_N' depart='161.0' departLane='random' departSpeed='10' />
    <vehicle id='W_S_54' type='standard_car' route='W_S' depart='162.0' departLane='random' departSpeed='10' />
    <vehicle id='N_S_55' type='standard_car' route='N_S' depart='163.0' departLane='random' departSpeed='10' />
    <vehicle id='E_N_56' type='standard_car' route='E_N' depart='164.0' departLane='random' departSpeed='10' />
    <vehicle id='S_E_57' type='standard_car' route='S_E' depart='165.0' departLane='random' departSpeed='10' />
    <vehicle id='N_W_58' type='standard_car' route='N_W' depart='169.0' departLane='random' departSpeed='10' />
    <vehicle id='E_N_59' type='standard_car' route='E_N' depart='170.0' departLane='random' departSpeed='10' />
    <vehicle id='E_W_60' type='standard_car' route='E_W' depart='173.0' departLane='random' departSpeed='10' />
    <vehicle id='E_W_61' type='standard_car' route='E_W' depart='177.0' departLane='random' departSpeed='10' />
    <vehicle id='E_W_62' type='standard_car' route='E_W' depart='177.0' departLane='random' departSpeed='10' />
    <vehicle id='W_E_63' type='standard_car' route='W_E' depart='178.0' departLane='random' departSpeed='10' />
    <vehicle id='E_N_64' type='standard_car' route='E_N' depart='179.0' departLane='random' departSpeed='10' />
    <vehicle id='S_N_65' type='standard_car' route='S_N' depart='179.0' departLane='random' departSpeed='10' />
    <vehicle id='E_N_66' type='standard_car' route='E_N' depart='179.0' departLane='random' departSpeed='10' />
    <vehicle id='S_E_67' type='standard_car' route='S_E' depart='180.0' departLane='random' departSpeed='10' />
    <vehicle id='W_E_68' type='standard_car' route='W_E' depart='182.0' departLane='random' departSpeed='10' />
    <vehicle id='E_W_69' type='standard_car' route='E_W' depart='182.0' departLane='random' departSpeed='10' />
    <vehicle id='N_S_70' type='standard_car' route='N_S' depart='182.0' departLane='random' departSpeed='10' />
    <vehicle id='S_E_71' type='standard_car' route='S_E' depart='183.0' departLane='random' departSpeed='10' />
    <vehicle id='W_S_72' type='standard_car' route='W_S' depart='184.0' departLane='random' departSpeed='10' />
    <vehicle id='N_S_73' type='standard_car' route='N_S' depart='184.0' departLane='random' departSpeed='10' />
    <vehicle id='N_S_74' type='standard_car' route='N_S' depart='185.0' departLane='random' departSpeed='10' />
    <vehicle id='S_E_75' type='standard_car' route='S_E' depart='187.0' departLane='random' departSpeed='10' />
    <vehicle id='W_E_76' type='standard_car' route='W_E' depart='187.0' departLane='random' departSpeed='10' />
    <vehicle id='N_W_77' type='standard_car' route='N_W' depart='188.0' departLane='random' departSpeed='10' />
    <vehicle id='N_S_78' type='standard_car' route='N_S' depart='188.0' departLane='random' departSpeed='10' />
    <vehicle id='N_S_79' type='standard_car' route='N_S' depart='190.0' departLane='random' departSpeed='10' />
    <vehicle id='W_E_80' type='standard_car' route='W_E' depart='190.0' departLane='random' departSpeed='10' />
    <vehicle id='N_S_81' type='standard_car' route='N_S' depart='190.0' departLane='random' departSpeed='10' />
    <vehicle id='W_E_82' type='standard_car' route='W_E' depart='195.0' departLane='random' departSpeed='10' />
    <vehicle id='E_W_83' type='standard_car' route='E_W' depart='196.0' departLane='random' departSpeed='10' />
    <vehicle id='N_S_84' type='standard_car' route='N_S' depart='197.0' departLane='random' departSpeed='10' />
    <vehicle id='N_W_85' type='standard_car' route='N_W' depart='198.0' departLane='random' departSpeed='10' />
    <vehicle id='E_W_86' type='standard_car' route='E_W' depart='198.0' departLane='random' departSpeed='10' />
    <vehicle id='S_E_87' type='standard_car' route='S_E' depart='199.0' departLane='random' departSpeed='10' />
    <vehicle id='W_S_88' type='standard_car' route='W_S' depart='199.0' departLane='random' departSpeed='10' />
    <vehicle id='E_W_89' type='standard_car' route='E_W' depart='201.0' departLane='random' departSpeed='10' />
    <vehicle id='N_S_90' type='standard_car' route='N_S' depart='201.0' departLane='random' departSpeed='10' />
    <vehicle id='W_E_91' type='standard_car' route='W_E' depart='201.0' departLane='random' departSpeed='10' />
    <vehicle id='S_N_92' type='standard_car' route='S_N' depart='204.0' departLane='random' departSpeed='10' />
    <vehicle id='N_S_93' type='standard_car' route='N_S' depart='205.0' departLane='random' departSpeed='10' />
    <vehicle id='N_S_94' type='standard_car' route='N_S' depart='206.0' departLane='random' departSpeed='10' />
    <vehicle id='W_E_95' type='standard_car' route='W_E' depart='206.0' departLane='random' departSpeed='10' />
    <vehicle id='W_E_96' type='standard_car' route='W_E' depart='206.0' departLane='random' departSpeed='10' />
    <vehicle id='W_S_97' type='standard_car' route='W_S' depart='206.0' departLane='random' departSpeed='10' />
    <vehicle id='E_N_98' type='standard_car' route='E_N' depart='208.0' departLane='random' departSpeed='10' />
    <vehicle id='N_W_99' type='standard_car' route='N_W' depart='212.0' departLane='random' departSpeed='10' />
    <vehicle id='W_S_100' type='standard_car' route='W_S' depart='214.0' departLane='random' departSpeed='10' />
    <vehicle id='W_E_101' type='standard_car' route='W_E' depart='215.0' departLane='random' departSpeed='10' />
    <vehicle id='E_W_102' type='standard_car' route='E_W' depart='215.0' departLane='random' departSpeed='10' />
    <vehicle id='E_W_103' type='standard_car' route='E_W' depart='215.0' departLane='random' departSpeed='10' />
    <vehicle id='W_E_104' type='standard_car' route='W_E' depart='216.0' departLane='random' departSpeed='10' />
    <vehicle id='S_N_105' type='standard_car' route='S_N' depart='216.0' departLane='random' departSpeed='10' />
    <vehicle id='S_E_106' type='standard_car' route='S_E' depart='218.0' departLane='random' departSpeed='10' />
    <vehicle id='E_W_107' type='standard_car' route='E_W' depart='220.0' departLane='random' departSpeed='10' />
    <vehicle id='N_S_108' type='standard_car' route='N_S' depart='221.0' departLane='random' departSpeed='10' />
    <vehicle id='E_W_109' type='standard_car' route='E_W' depart='221.0' departLane='random' departSpeed='10' />
    <vehicle id='N_S_110' type='standard_car' route='N_S' depart='221.0' departLane='random' departSpeed='10' />
    <vehicle id='W_S_111' type='standard_car' route='W_S' depart='222.0' departLane='random' departSpeed='10' />
    <vehicle id='E_N_112' type='standard_car' route='E_N' depart='222.0' departLane='random' departSpeed='10' />
    <vehicle id='N_W_113' type='standard_car' route='N_W' depart='222.0' departLane='random' departSpeed='10' />
    <vehicle id='E_N_114' type='standard_car' route='E_N' depart='229.0' departLane='random' departSpeed='10' />
    <vehicle id='S_N_115' type='standard_car' route='S_N' depart='230.0' departLane='random' departSpeed='10' />
    <vehicle id='E_N_116' type='standard_car' route='E_N' depart='232.0' departLane='random' departSpeed='10' />
    <vehicle id='E_N_117' type='standard_car' route='E_N' depart='233.0' departLane='random' departSpeed='10' />
    <vehicle id='N_S_118' type='standard_car' route='N_S' depart='233.0' departLane='random' departSpeed='10' />
    <vehicle id='E_W_119' type='standard_car' route='E_W' depart='234.0' departLane='random' departSpeed='10' />
    <vehicle id='W_E_120' type='standard_car' route='W_E' depart='234.0' departLane='random' departSpeed='10' />
    <vehicle id='S_E_121' type='standard_car' route='S_E' depart='234.0' departLane='random' departSpeed='10' />
    <vehicle id='W_E_122' type='standard_car' route='W_E' depart='235.0' departLane='random' departSpeed='10' />
    <vehicle id='W_S_123' type='standard_car' route='W_S' depart='235.0' departLane='random' departSpeed='10' />
    <vehicle id='W_S_124' type='standard_car' route='W_S' depart='238.0' departLane='random' departSpeed='10' />
    <vehicle id='N_W_125' type='standard_car' route='N_W' depart='238.0' departLane='random' departSpeed='10' />
    <vehicle id='W_E_126' type='standard_car' route='W_E' depart='238.0' departLane='random' departSpeed='10' />
    <vehicle id='S_E_127' type='standard_car' route='S_E' depart='239.0' departLane='random' departSpeed='10' />
    <vehicle id='E_N_128' type='standard_car' route='E_N' depart='240.0' departLane='random' departSpeed='10' />
    <vehicle id='E_N_129' type='standard_car' route='E_N' depart='240.0' departLane='random' departSpeed='10' />
    <vehicle id='S_E_130' type='standard_car' route='S_E' depart='245.0' departLane='random' departSpeed='10' />
    <vehicle id='W_E_131' type='standard_car' route='W_E' depart='246.0' departLane='random' departSpeed='10' />
    <vehicle id='W_E_132' type='standard_car' route='W_E' depart='252.0' departLane='random' departSpeed='10' />
    <vehicle id='E_N_133' type='standard_car' route='E_N' depart='253.0' departLane='random' departSpeed='10' />
    <vehicle id='N_S_134' type='standard_car' route='N_S' depart='253.0' departLane='random' departSpeed='10' />
    <vehicle id='W_E_135' type='standard_car' route='W_E' depart='254.0' departLane='random' departSpeed='10' />
    <vehicle id='N_W_136' type='standard_car' route='N_W' depart='255.0' departLane='random' departSpeed='10' />
    <vehicle id='S_E_137' type='standard_car' route='S_E' depart='256.0' departLane='random' departSpeed='10' />
    <vehicle id='N_W_138' type='standard_car' route='N_W' depart='256.0' departLane='random' departSpeed='10' />
    <vehicle id='S_N_139' type='standard_car' route='S_N' depart='256.0' departLane='random' departSpeed='10' />
    <vehicle id='E_W_140' type='standard_car' route='E_W' depart='257.0' departLane='random' departSpeed='10' />
    <vehicle id='W_E_141' type='standard_car' route='W_E' depart='258.0' departLane='random' departSpeed='10' />
    <vehicle id='W_E_142' type='standard_car' route='W_E' depart='259.0' departLane='random' departSpeed='10' />
    <vehicle id='S_E_143' type='standard_car' route='S_E' depart='259.0' departLane='random' departSpeed='10' />
    <vehicle id='E_N_144' type='standard_car' route='E_N' depart='260.0' departLane='random' departSpeed='10' />
    <vehicle id='S_N_145' type='standard_car' route='S_N' depart='260.0' departLane='random' departSpeed='10' />
    <vehicle id='N_S_146' type='standard_car' route='N_S' depart='260.0' departLane='random' departSpeed='10' />
    <vehicle id='S_N_147' type='standard_car' route='S_N' depart='261.0' departLane='random' departSpeed='10' />
    <vehicle id='S_E_148' type='standard_car' route='S_E' depart='262.0' departLane='random' departSpeed='10' />
    <vehicle id='E_W_149' type='standard_car' route='E_W' depart='264.0' departLane='random' departSpeed='10' />
    <vehicle id='N_S_150' type='standard_car' route='N_S' depart='264.0' departLane='random' departSpeed='10' />
    <vehicle id='N_S_151' type='standard_car' route='N_S' depart='266.0' departLane='random' departSpeed='10' />
    <vehicle id='W_S_152' type='standard_car' route='W_S' depart='266.0' departLane='random' departSpeed='10' />
    <vehicle id='E_N_153' type='standard_car' route='E_N' depart='267.0' departLane='random' departSpeed='10' />
    <vehicle id='W_E_154' type='standard_car' route='W_E' depart='268.0' departLane='random' departSpeed='10' />
    <vehicle id='N_W_155' type='standard_car' route='N_W' depart='268.0' departLane='random' departSpeed='10' />
    <vehicle id='E_W_156' type='standard_car' route='E_W' depart='268.0' departLane='random' departSpeed='10' />
    <vehicle id='W_S_157' type='standard_car' route='W_S' depart='269.0' departLane='random' departSpeed='10' />
    <vehicle id='S_N_158' type='standard_car' route='S_N' depart='270.0' departLane='random' departSpeed='10' />
    <vehicle id='E_W_159' type='standard_car' route='E_W' depart='271.0' departLane='random' departSpeed='10' />
    <vehicle id='N_W_160' type='standard_car' route='N_W' depart='271.0' departLane='random' departSpeed='10' />
    <vehicle id='E_W_161' type='standard_car' route='E_W' depart='271.0' departLane='random' departSpeed='10' />
    <vehicle id='N_W_162' type='standard_car' route='N_W' depart='272.0' departLane='random' departSpeed='10' />
    <vehicle id='W_E_163' type='standard_car' route='W_E' depart='273.0' departLane='random' departSpeed='10' />
    <vehicle id='N_S_164' type='standard_car' route='N_S' depart='276.0' departLane='random' departSpeed='10' />
    <vehicle id='S_N_165' type='standard_car' route='S_N' depart='277.0' departLane='random' departSpeed='10' />
    <vehicle id='W_E_166' type='standard_car' route='W_E' depart='278.0' departLane='random' departSpeed='10' />
    <vehicle id='E_W_167' type='standard_car' route='E_W' depart='279.0' departLane='random' departSpeed='10' />
    <vehicle id='N_W_168' type='standard_car' route='N_W' depart='281.0' departLane='random' departSpeed='10' />
    <vehicle id='W_E_169' type='standard_car' route='W_E' depart='281.0' departLane='random' departSpeed='10' />
    <vehicle id='W_E_170' type='standard_car' route='W_E' depart='281.0' departLane='random' departSpeed='10' />
    <vehicle id='N_S_171' type='standard_car' route='N_S' depart='284.0' departLane='random' departSpeed='10' />
    <vehicle id='S_N_172' type='standard_car' route='S_N' depart='286.0' departLane='random' departSpeed='10' />
    <vehicle id='W_E_173' type='standard_car' route='W_E' depart='286.0' departLane='random' departSpeed='10' />
    <vehicle id='W_S_174' type='standard_car' route='W_S' depart='288.0' departLane='random' departSpeed='10' />
    <vehicle id='W_E_175' type='standard_car' route='W_E' depart='288.0' departLane='random' departSpeed='10' />
    <vehicle id='N_S_176' type='standard_car' route='N_S' depart='289.0' departLane='random' departSpeed='10' />
    <vehicle id='E_N_177' type='standard_car' route='E_N' depart='290.0' departLane='random' departSpeed='10' />
    <vehicle id='S_E_178' type='standard_car' route='S_E' depart='290.0' departLane='random' departSpeed='10' />
    <vehicle id='N_S_179' type='standard_car' route='N_S' depart='291.0' departLane='random' departSpeed='10' />
    <vehicle id='E_W_180' type='standard_car' route='E_W' depart='292.0' departLane='random' departSpeed='10' />
    <vehicle id='W_E_181' type='standard_car' route='W_E' depart='293.0' departLane='random' departSpeed='10' />
    <vehicle id='W_S_182' type='standard_car' route='W_S' depart='293.0' departLane='random' departSpeed='10' />
    <vehicle id='W_S_183' type='standard_car' route='W_S' depart='293.0' departLane='random' departSpeed='10' />
    <vehicle id='N_S_184' type='standard_car' route='N_S' depart='294.0' departLane='random' departSpeed='10' />
    <vehicle id='N_S_185' type='standard_car' route='N_S' depart='295.0' departLane='random' departSpeed='10' />
    <vehicle id='E_W_186' type='standard_car' route='E_W' depart='295.0' departLane='random' departSpeed='10' />
    <vehicle id='E_W_187' type='standard_car' route='E_W' depart='296.0' departLane='random' departSpeed='10' />
    <vehicle id='E_W_188' type='standard_car' route='E_W' depart='298.0' departLane='random' departSpeed='10' />
    <vehicle id='N_S_189' type='standard_car' route='N_S' depart='298.0' departLane='random' departSpeed='10' />
    <vehicle id='N_W_190' type='standard_car' route='N_W' depart='298.0' departLane='random' departSpeed='10' />
    <vehicle id='S_N_191' type='standard_car' route='S_N' depart='300.0' departLane='random' departSpeed='10' />
    <vehicle id='S_E_192' type='standard_car' route='S_E' depart='300.0' departLane='random' departSpeed='10' />
    <vehicle id='N_S_193' type='standard_car' route='N_S' depart='300.0' departLane='random' departSpeed='10' />
    <vehicle id='N_S_194' type='standard_car' route='N_S' depart='301.0' departLane='random' departSpeed='10' />
    <vehicle id='E_N_195' type='standard_car' route='E_N' depart='303.0' departLane='random' departSpeed='10' />
    <vehicle id='N_W_196' type='standard_car' route='N_W' depart='303.0' departLane='random' departSpeed='10' />
    <vehicle id='E_N_197' type='standard_car' route='E_N' depart='305.0' departLane='random' departSpeed='10' />
    <vehicle id='S_N_198' type='standard_car' route='S_N' depart='306.0' departLane='random' departSpeed='10' />
    <vehicle id='S_E_199' type='standard_car' route='S_E' depart='307.0' departLane='random' departSpeed='10' />
    <vehicle id='N_W_200' type='standard_car' route='N_W' depart='309.0' departLane='random' departSpeed='10' />
    <vehicle id='S_N_201' type='standard_car' route='S_N' depart='309.0' departLane='random' departSpeed='10' />
    <vehicle id='W_E_202' type='standard_car' route='W_E' depart='309.0' departLane='random' departSpeed='10' />
    <vehicle id='E_W_203' type='standard_car' route='E_W' depart='309.0' departLane='random' departSpeed='10' />
    <vehicle id='E_N_204' type='standard_car' route='E_N' depart='310.0' departLane='random' departSpeed='10' />
    <vehicle id='N_S_205' type='standard_car' route='N_S' depart='311.0' departLane='random' departSpeed='10' />
    <vehicle id='S_N_206' type='standard_car' route='S_N' depart='311.0' departLane='random' departSpeed='10' />
    <vehicle id='E_W_207' type='standard_car' route='E_W' depart='311.0' departLane='random' departSpeed='10' />
    <vehicle id='N_W_208' type='standard_car' route='N_W' depart='312.0' departLane='random' departSpeed='10' />
    <vehicle id='E_N_209' type='standard_car' route='E_N' depart='313.0' departLane='random' departSpeed='10' />
    <vehicle id='N_W_210' type='standard_car' route='N_W' depart='315.0' departLane='random' departSpeed='10' />
    <vehicle id='E_N_211' type='standard_car' route='E_N' depart='316.0' departLane='random' departSpeed='10' />
    <vehicle id='W_S_212' type='standard_car' route='W_S' depart='317.0' departLane='random' departSpeed='10' />
    <vehicle id='S_N_213' type='standard_car' route='S_N' depart='318.0' departLane='random' departSpeed='10' />
    <vehicle id='N_S_214' type='standard_car' route='N_S' depart='319.0' departLane='random' departSpeed='10' />
    <vehicle id='W_S_215' type='standard_car' route='W_S' depart='319.0' departLane='random' departSpeed='10' />
    <vehicle id='S_E_216' type='standard_car' route='S_E' depart='319.0' departLane='random' departSpeed='10' />
    <vehicle id='N_S_217' type='standard_car' route='N_S' depart='320.0' departLane='random' departSpeed='10' />
    <vehicle id='S_N_218' type='standard_car' route='S_N' depart='320.0' departLane='random' departSpeed='10' />
    <vehicle id='W_E_219' type='standard_car' route='W_E' depart='321.0' departLane='random' departSpeed='10' />
    <vehicle id='S_N_220' type='standard_car' route='S_N' depart='323.0' departLane='random' departSpeed='10' />
    <vehicle id='E_W_221' type='standard_car' route='E_W' depart='324.0' departLane='random' departSpeed='10' />
    <vehicle id='E_W_222' type='standard_car' route='E_W' depart='325.0' departLane='random' departSpeed='10' />
    <vehicle id='E_W_223' type='standard_car' route='E_W' depart='326.0' departLane='random' departSpeed='10' />
    <vehicle id='N_W_224' type='standard_car' route='N_W' depart='327.0' departLane='random' departSpeed='10' />
    <vehicle id='E_W_225' type='standard_car' route='E_W' depart='328.0' departLane='random' departSpeed='10' />
    <vehicle id='S_N_226' type='standard_car' route='S_N' depart='329.0' departLane='random' departSpeed='10' />
    <vehicle id='E_W_227' type='standard_car' route='E_W' depart='330.0' departLane='random' departSpeed='10' />
    <vehicle id='E_W_228' type='standard_car' route='E_W' depart='330.0' departLane='random' departSpeed='10' />
    <vehicle id='E_N_229' type='standard_car' route='E_N' depart='331.0' departLane='random' departSpeed='10' />
    <vehicle id='S_N_230' type='standard_car' route='S_N' depart='331.0' departLane='random' departSpeed='10' />
    <vehicle id='N_S_231' type='standard_car' route='N_S' depart='333.0' departLane='random' departSpeed='10' />
    <vehicle id='N_S_232' type='standard_car' route='N_S' depart='334.0' departLane='random' departSpeed='10' />
    <vehicle id='E_W_233' type='standard_car' route='E_W' depart='334.0' departLane='random' departSpeed='10' />
    <vehicle id='S_N_234' type='standard_car' route='S_N' depart='337.0' departLane='random' departSpeed='10' />
    <vehicle id='N_S_235' type='standard_car' route='N_S' depart='338.0' departLane='random' departSpeed='10' />
    <vehicle id='S_E_236' type='standard_car' route='S_E' depart='339.0' departLane='random' departSpeed='10' />
    <vehicle id='W_S_237' type='standard_car' route='W_S' depart='340.0' departLane='random' departSpeed='10' />
    <vehicle id='E_W_238' type='standard_car' route='E_W' depart='340.0' departLane='random' departSpeed='10' />
    <vehicle id='W_E_239' type='standard_car' route='W_E' depart='340.0' departLane='random' departSpeed='10' />
    <vehicle id='N_S_240' type='standard_car' route='N_S' depart='341.0' departLane='random' departSpeed='10' />
    <vehicle id='E_W_241' type='standard_car' route='E_W' depart='341.0' departLane='random' departSpeed='10' />
    <vehicle id='S_E_242' type='standard_car' route='S_E' depart='341.0' departLane='random' departSpeed='10' />
    <vehicle id='E_N_243' type='standard_car' route='E_N' depart='341.0' departLane='random' departSpeed='10' />
    <vehicle id='E_N_244' type='standard_car' route='E_N' depart='343.0' departLane='random' departSpeed='10' />
    <vehicle id='W_S_245' type='standard_car' route='W_S' depart='344.0' departLane='random' departSpeed='10' />
    <vehicle id='S_N_246' type='standard_car' route='S_N' depart='344.0' departLane='random' departSpeed='10' />
    <vehicle id='E_W_247' type='standard_car' route='E_W' depart='344.0' departLane='random' departSpeed='10' />
    <vehicle id='E_W_248' type='standard_car' route='E_W' depart='345.0' departLane='random' departSpeed='10' />
    <vehicle id='N_S_249' type='standard_car' route='N_S' depart='347.0' departLane='random' departSpeed='10' />
    <vehicle id='W_E_250' type='standard_car' route='W_E' depart='349.0' departLane='random' departSpeed='10' />
    <vehicle id='W_S_251' type='standard_car' route='W_S' depart='350.0' departLane='random' departSpeed='10' />
    <vehicle id='S_E_252' type='standard_car' route='S_E' depart='350.0' departLane='random' departSpeed='10' />
    <vehicle id='S_N_253' type='standard_car' route='S_N' depart='350.0' departLane='random' departSpeed='10' />
    <vehicle id='N_W_254' type='standard_car' route='N_W' depart='350.0' departLane='random' departSpeed='10' />
    <vehicle id='N_S_255' type='standard_car' route='N_S' depart='351.0' departLane='random' departSpeed='10' />
    <vehicle id='S_E_256' type='standard_car' route='S_E' depart='352.0' departLane='random' departSpeed='10' />
    <vehicle id='E_W_257' type='standard_car' route='E_W' depart='353.0' departLane='random' departSpeed='10' />
    <vehicle id='W_E_258' type='standard_car' route='W_E' depart='353.0' departLane='random' departSpeed='10' />
    <vehicle id='E_N_259' type='standard_car' route='E_N' depart='354.0' departLane='random' departSpeed='10' />